version 2
run General-0-20190508-15:22:02-6828
attr configname General
attr datetime 20190508-15:22:02
attr experiment General
attr inifile omnetpp.ini
attr iterationvars ""
attr iterationvarsf ""
attr measurement ""
attr network AmusementAlt4
attr processid 6828
attr repetition 0
attr replication #0
attr resultdir results
attr runnumber 0
attr seedset 0
param **.Source.interArrivalTime exponential(20s)
param **.TicketBooth1.serviceTime "truncnormal(75s, 15s)"
param **.TicketBooth2.serviceTime "truncnormal(75s, 15s)"
param **.TicketBooth3.serviceTime "truncnormal(75s, 15s)"
param **.TicketBooth4.serviceTime "truncnormal(75s, 15s)"
param **.SecurityBooth2.serviceTime "truncnormal(30s, 10s)"
param **.SecurityBooth3.serviceTime "truncnormal(30s, 10s)"
param **.SecurityBooth1.serviceTime "truncnormal(30s, 10s)"
param **.SecurityBooth4.serviceTime "truncnormal(30s, 10s)"
param **.Source.numJobs 1500
param **.Source.startTime 0s
param **.Source.stopTime 18000s

vector 0 AmusementAlt4.TicketQueue1 queueLength:vector ETV
attr interpolationmode sample-hold
attr title "queue length, vector"
vector 1 AmusementAlt4.SecurityQueue1 queueLength:vector ETV
attr interpolationmode sample-hold
attr title "queue length, vector"
vector 2 AmusementAlt4.EnterPark lifeTime:vector ETV
attr interpolationmode none
attr title "lifetime of arrived jobs, vector"
attr unit s
0	0	0	0
0	94	351.363291923418	1
0	95	369.673613619676	0
0	100	381.128388438452	1
0	102	384.033948984296	2
0	104	384.413320368318	3
0	105	385.308885112586	2
0	110	392.248736581852	3
0	111	392.671346773211	2
0	118	411.439696129217	3
0	123	418.108988981467	2
0	127	421.085248975908	1
0	132	423.394617665585	2
0	134	445.372867016604	3
0	140	466.549549646356	4
0	141	472.568906454161	3
0	145	481.582187534918	2
0	149	482.374861853129	1
0	154	488.7614985601	2
0	158	508.878918663431	3
0	163	514.91606050592	2
0	167	545.347310621478	1
0	171	546.591222040485	0
0	190	617.506137068366	1
0	192	619.845245264215	2
0	193	620.293466142712	1
0	197	621.181584567194	0
0	208	644.35150892538	1
0	214	666.747796240459	2
0	215	668.333034685511	1
0	220	668.768491746638	2
0	226	683.020163613302	3
0	227	686.309160276304	2
0	231	705.612072259049	1
0	237	728.303511821532	0
0	252	781.596179834354	1
0	253	782.996487314492	0
0	270	832.358677799636	1
0	271	833.773564889589	0
0	284	853.680665119158	1
0	285	855.531792916879	0
0	290	875.697583320975	1
0	295	888.873951565161	0
0	300	912.523232750716	1
0	304	930.185813589902	2
0	305	935.28897126079	1
0	309	936.559109821909	0
0	314	946.28176158593	1
0	315	950.03013450783	0
0	322	952.576194803023	1
0	325	962.727998376713	0
0	330	963.934277872628	1
0	332	981.866095288346	2
0	337	1011.828951774146	1
0	341	1012.440629489649	0
0	362	1061.799988082824	1
0	363	1071.672481479126	0
0	412	1176.335966115458	1
0	414	1187.535187516938	2
0	415	1187.600176589978	1
0	421	1218.701345856617	0
0	442	1255.865957223123	1
0	448	1265.029414902287	2
0	450	1267.075827199338	3
0	451	1269.06148797322	2
0	456	1278.525058227905	3
0	457	1281.849968431048	2
0	461	1281.873488672464	1
0	466	1293.92659541883	2
0	473	1334.68935566063	1
0	477	1336.689144831922	0
0	518	1468.635869112153	1
0	520	1477.734106007988	2
0	521	1493.404136654199	1
0	525	1494.229291341774	0
0	612	1772.213219059783	1
0	616	1789.072794568071	2
0	617	1791.002590538014	1
0	621	1815.539639831943	0
0	626	1815.979743232749	1
0	628	1817.141190475068	2
0	632	1828.539141781197	3
0	633	1840.091140441839	2
0	638	1841.921416254995	3
0	641	1849.577498706475	2
0	646	1851.409742061654	3
0	647	1852.995085526695	2
0	655	1889.919432413985	1
0	660	1889.976944799252	2
0	665	1924.599750253852	1
0	669	1927.77831383784	0
0	680	1940.580773345878	1
0	682	1948.294527226783	2
0	687	1957.624031910103	1
0	695	1994.181150337121	0
0	700	1995.25140245537	1
0	701	2023.312919161644	0
0	774	2256.557436726039	1
0	775	2260.40126026641	0
0	780	2260.402665542882	1
0	781	2269.282137573351	0
0	786	2277.0702303558	1
0	790	2280.675716347366	2
0	791	2283.475781466983	1
0	796	2294.066528164588	2
0	798	2294.685053995798	3
0	802	2323.67614952435	4
0	803	2325.140138602345	3
0	809	2328.67766126641	2
0	814	2351.163009812758	3
0	815	2353.704565121098	2
0	819	2355.979729520373	1
0	828	2368.727311387123	2
0	830	2370.029568682856	3
0	832	2370.360890571288	4
0	836	2386.583711015847	5
0	839	2403.648331324775	4
0	843	2420.967344554537	3
0	847	2431.690174933425	2
0	851	2433.157712819533	1
0	860	2439.634881326256	2
0	864	2458.287118431633	3
0	866	2466.54171576617	4
0	868	2471.470032210425	5
0	871	2477.662755527047	4
0	875	2487.40262614388	3
0	879	2515.430950850609	2
0	887	2527.7304374218	1
0	892	2536.648451754118	2
0	894	2540.970376086002	3
0	895	2554.559180462201	2
0	902	2560.210614617803	3
0	907	2578.617139094438	2
0	911	2578.695808485084	1
0	915	2598.027118881235	0
0	920	2599.865592709871	1
0	922	2602.810093456133	2
0	924	2613.990246855952	3
0	932	2648.522914450797	4
0	933	2654.079597651302	3
0	937	2655.23114271281	2
0	941	2655.313786033209	1
0	946	2655.594845956057	2
0	949	2670.411240250633	1
0	959	2703.229426973962	0
0	964	2720.394105294074	1
0	965	2721.164569189412	0
0	970	2727.579983396596	1
0	972	2730.42249362445	2
0	974	2738.292541846904	3
0	976	2739.390689297926	4
0	977	2740.843983721409	3
0	985	2767.436183278099	2
0	991	2771.167251188121	1
0	995	2798.585296354361	0
0	1002	2800.487884878068	1
0	1006	2811.401039173414	2
0	1009	2833.781064800298	1
0	1014	2839.298420998677	2
0	1015	2839.8743470883	1
0	1019	2846.143358991268	0
0	1026	2865.267333710771	1
0	1032	2878.653391150492	2
0	1033	2881.886252191419	1
0	1038	2884.732822335069	2
0	1040	2896.401297755775	3
0	1043	2914.013346997601	2
0	1047	2917.965126980035	1
0	1052	2920.191222782474	2
0	1054	2921.997967664108	3
0	1056	2923.168525643038	4
0	1059	2940.023512958719	3
0	1063	2940.898471270895	2
0	1068	2944.74706381303	3
0	1072	2954.109192877727	4
0	1074	2955.557575080019	5
0	1076	2973.272788000617	6
0	1078	2973.467496187428	7
0	1082	2979.839173145009	8
0	1085	2982.876766019772	7
0	1089	3004.742072117437	6
0	1093	3005.028821950493	5
0	1099	3021.267145320176	4
0	1104	3024.360852933846	5
0	1110	3041.594202769751	6
0	1114	3052.30228979162	7
0	1115	3053.170266942828	6
0	1119	3067.530392583072	5
0	1127	3094.583510089719	4
0	1131	3109.702867357504	3
0	1136	3116.398466383855	4
0	1137	3118.75361539943	3
0	1143	3122.509954745591	2
0	1148	3124.279617822794	3
0	1152	3139.976358214626	4
0	1154	3141.912307660788	5
0	1158	3154.121964560742	6
0	1159	3160.957571362215	5
0	1165	3180.95576158582	4
0	1172	3202.402293170901	5
0	1173	3202.784681158856	4
0	1177	3204.145708859355	3
0	1188	3249.279685986872	4
0	1190	3249.828527995477	5
0	1191	3262.851247147543	4
0	1195	3269.873711581141	3
0	1200	3270.043911257461	4
0	1201	3271.965890884739	3
0	1205	3273.205419781618	2
0	1210	3275.345773285598	3
0	1219	3320.515808070789	2
0	1223	3330.364457390347	1
0	1228	3336.024624733549	2
0	1230	3337.80127238664	3
0	1231	3339.375314172173	2
0	1236	3341.274403650808	3
0	1237	3345.47764569107	2
0	1249	3376.926115046942	1
0	1254	3400.909996797333	2
0	1256	3401.587433902182	3
0	1260	3408.921536978064	4
0	1261	3409.767537716862	3
0	1265	3412.748256651405	2
0	1269	3425.455437214277	1
0	1277	3450.304999980451	0
0	1284	3472.796774431711	1
0	1286	3474.870191164551	2
0	1287	3476.873984071289	1
0	1291	3480.109792700585	0
0	1308	3530.374475308774	1
0	1310	3541.57464277539	2
0	1311	3543.663235251448	1
0	1315	3545.554286499621	0
0	1328	3562.803670995162	1
0	1335	3587.944576560156	0
0	1462	3982.602666244516	1
0	1464	3985.019294169768	2
0	1465	4005.10502192208	1
0	1469	4006.132124951661	0
0	1492	4066.722063458121	1
0	1493	4070.907344202082	0
0	1498	4075.395360565598	1
0	1499	4077.128410619317	0
0	1518	4141.122104237351	1
0	1519	4145.101814816895	0
0	1540	4187.401146203031	1
0	1544	4211.220775270964	2
0	1546	4214.035678379535	3
0	1548	4223.542471772366	4
0	1549	4228.445426608964	3
0	1553	4232.249520053961	2
0	1557	4234.289705026039	1
0	1562	4242.075243778303	2
0	1563	4244.902456424006	1
0	1568	4248.062303837131	2
0	1574	4264.125039275556	3
0	1579	4298.342760328497	2
0	1583	4302.789699920195	1
0	1587	4312.947734486198	0
0	1604	4353.400770721498	1
0	1607	4371.622150825993	0
0	1612	4373.051337575945	1
0	1613	4383.367729533735	0
0	1694	4660.327355906299	1
0	1695	4663.212801777069	0
0	1706	4692.19834511157	1
0	1707	4692.955458965826	0
0	1716	4709.412639261848	1
0	1717	4714.740749603026	0
0	1828	5056.183980160775	1
0	1832	5061.845428877724	2
0	1833	5072.530325458045	1
0	1837	5101.543549419462	0
0	1876	5201.251510512942	1
0	1877	5203.03090724858	0
0	1882	5214.126006629986	1
0	1887	5233.670880312949	0
0	1902	5267.523770959244	1
0	1904	5276.518038318167	2
0	1905	5291.156657336502	1
0	1909	5291.809946821727	0
0	1914	5294.709452415624	1
0	1916	5302.659034014089	2
0	1917	5304.151444659583	1
0	1922	5309.597611677183	2
0	1926	5328.289220004162	3
0	1930	5335.688803599179	4
0	1934	5348.677018135067	5
0	1935	5356.132925267075	4
0	1940	5359.001087233805	5
0	1942	5373.45313198451	6
0	1944	5384.787171181505	7
0	1945	5386.102796739698	6
0	1949	5387.586900167001	5
0	1956	5393.962197234434	6
0	1958	5402.716986356699	7
0	1960	5404.75329919624	8
0	1961	5407.91156473265	7
0	1967	5422.913147850916	6
0	1972	5426.1549489888	7
0	1975	5427.950582091104	6
0	1985	5474.98676219978	5
0	1989	5477.056648540616	4
0	1993	5478.262418169203	3
0	1997	5479.88568384115	2
0	2009	5527.051769070007	1
0	2013	5548.766326658183	0
0	2034	5584.445538555003	1
0	2039	5616.342339720029	0
0	2086	5794.258469623359	1
0	2087	5826.378310380898	0
0	2134	5989.598873741719	1
0	2136	5999.80430169689	2
0	2137	6019.841876556114	1
0	2142	6020.192205458252	2
0	2144	6029.584366100823	3
0	2145	6035.707719395088	2
0	2152	6048.650084725276	3
0	2153	6049.47097673238	2
0	2157	6070.869920670347	1
0	2165	6082.993900184248	0
0	2170	6097.71620155534	1
0	2174	6105.460150900161	2
0	2177	6114.167477538705	1
0	2182	6130.490330039174	2
0	2183	6130.685247827074	1
0	2190	6132.81616337451	2
0	2191	6138.347147768439	1
0	2196	6154.729160779499	2
0	2198	6156.909798051931	3
0	2201	6160.461334239152	2
0	2206	6179.831358753213	3
0	2207	6185.741773140118	2
0	2215	6191.196453039761	1
0	2222	6195.142140398698	2
0	2224	6203.919223939539	3
0	2226	6204.305386043392	4
0	2227	6231.645651782476	3
0	2233	6234.269340724521	2
0	2238	6242.027688180206	3
0	2240	6243.706888980872	4
0	2241	6248.487854114941	3
0	2247	6258.84219898418	2
0	2252	6259.119510196886	3
0	2254	6260.488287704551	4
0	2258	6274.909335792944	5
0	2260	6276.266453353902	6
0	2262	6281.303949047781	7
0	2267	6299.57318171844	6
0	2271	6308.993643949804	5
0	2278	6320.101184239598	6
0	2279	6322.513615328912	5
0	2285	6340.643957185208	4
0	2292	6365.615583901066	5
0	2296	6374.214027955841	6
0	2298	6375.674278832686	7
0	2299	6382.129922877667	6
0	2303	6388.840788224459	5
0	2307	6393.239700349173	4
0	2311	6401.31940510663	3
0	2316	6406.091796985353	4
0	2326	6456.134956636148	5
0	2327	6457.230718143657	4
0	2331	6462.989381173201	3
0	2335	6468.226120635479	2
0	2339	6472.564037889283	1
0	2346	6484.617576948868	2
0	2348	6486.669162146808	3
0	2356	6501.531875232913	4
0	2357	6519.212733917498	3
0	2361	6522.647135127674	2
0	2366	6539.722975602991	3
0	2368	6539.800332066737	4
0	2369	6541.926419329964	3
0	2373	6543.390784458005	2
0	2382	6558.580704137206	3
0	2386	6584.012904183593	4
0	2387	6588.274206746489	3
0	2391	6593.65581866118	2
0	2398	6602.773066495754	3
0	2399	6608.65347991777	2
0	2405	6615.98504660877	1
0	2415	6644.799639688069	0
0	2420	6656.193565965915	1
0	2421	6668.237823019334	0
0	2484	6890.572365793859	1
0	2486	6905.906873436412	2
0	2489	6917.716693417063	1
0	2496	6943.095004884785	2
0	2497	6944.436841298628	1
0	2501	6946.884284019484	0
0	2506	6950.252058331339	1
0	2507	6953.741544454152	0
0	2512	6957.50588105546	1
0	2514	6967.954465922415	2
0	2516	6970.231679068533	3
0	2523	7003.050433115547	2
0	2528	7012.265550750122	3
0	2529	7028.774175708385	2
0	2534	7030.413809148904	3
0	2537	7038.798221897335	2
0	2541	7044.814435552124	1
0	2546	7049.296634190232	2
0	2547	7060.35801893438	1
0	2552	7062.50611207586	2
0	2561	7114.670390905838	1
0	2566	7114.962622513825	2
0	2567	7129.732479098454	1
0	2571	7138.610977210169	0
0	2578	7148.110512927195	1
0	2579	7148.627769670471	0
0	2584	7169.341579253122	1
0	2591	7184.297578756627	0
0	2596	7188.781107114678	1
0	2598	7194.091007967635	2
0	2600	7196.476305367137	3
0	2602	7198.173779843361	4
0	2603	7199.591183496303	3
0	2608	7202.949951032359	4
0	2609	7203.726170971712	3
0	2613	7205.669454875236	2
0	2618	7212.115442293464	3
0	2624	7223.197125190417	4
0	2626	7224.529227935237	5
0	2628	7225.842491638775	6
0	2632	7231.982039289621	7
0	2636	7236.652313410386	8
0	2638	7245.217473986623	9
0	2639	7255.320216599449	8
0	2643	7275.03470157079	7
0	2647	7279.992802703092	6
0	2651	7291.328858849534	5
0	2658	7299.098627686267	6
0	2664	7315.274430211866	7
0	2667	7331.711016636713	6
0	2671	7344.18376851196	5
0	2676	7348.694161715737	6
0	2677	7357.782034923244	5
0	2681	7363.263718140433	4
0	2690	7376.832772621262	5
0	2695	7403.313021738059	4
0	2700	7410.835251206542	5
0	2701	7425.019480118518	4
0	2705	7442.449928096113	3
0	2713	7456.063765529759	2
0	2718	7456.19505902326	3
0	2720	7456.298384745345	4
0	2722	7459.705931919069	5
0	2723	7459.732287115066	4
0	2729	7478.296106429571	3
0	2734	7483.399654932168	4
0	2742	7497.671877997245	5
0	2744	7500.695686526123	6
0	2746	7503.427863719944	7
0	2748	7512.322232819046	8
0	2749	7513.223878629788	7
0	2756	7531.751591890422	8
0	2758	7538.400630322102	9
0	2759	7554.653896190337	8
0	2763	7562.064695151609	7
0	2768	7562.067420789265	8
0	2769	7567.113703807016	7
0	2774	7568.006361964889	8
0	2779	7590.586010941404	7
0	2786	7596.61074893004	8
0	2787	7603.957817094111	7
0	2792	7611.825080966732	8
0	2794	7616.3900134307	9
0	2800	7628.233509510257	10
0	2801	7640.384940309032	9
0	2805	7645.252360194249	8
0	2809	7649.154725347895	7
0	2814	7660.065151771824	8
0	2817	7669.755207975274	7
0	2824	7677.306384317763	8
0	2828	7700.381659585095	9
0	2832	7708.829728573154	10
0	2833	7713.740322093964	9
0	2838	7730.956789872367	10
0	2839	7733.094266933695	9
0	2844	7734.008312835164	10
0	2846	7734.934102953527	11
0	2847	7747.411110530095	10
0	2852	7748.260720474004	11
0	2854	7752.040290808365	12
0	2855	7753.243419049774	11
0	2866	7771.453605765282	12
0	2869	7809.798527321349	11
0	2873	7813.825004888207	10
0	2877	7821.918371338564	9
0	2882	7825.415266624283	10
0	2884	7826.639655266748	11
0	2889	7842.590503060318	10
0	2894	7843.778117296458	11
0	2896	7846.337516193783	12
0	2901	7883.406710106178	11
0	2905	7886.54082728894	10
0	2909	7900.738616535655	9
0	2914	7901.607045005543	10
0	2916	7903.635540673346	11
0	2920	7913.405326401154	12
0	2923	7927.990967852507	11
0	2929	7951.101133319463	10
0	2934	7953.22963921106	11
0	2937	7965.351374117406	10
0	2942	7970.297452935459	11
0	2943	7970.605955000677	10
0	2947	7980.823431830784	9
0	2956	7984.865732443641	10
0	2960	8011.173782294818	11
0	2963	8019.067436195655	10
0	2967	8026.346937017476	9
0	2972	8037.035221052337	10
0	2973	8049.201378719366	9
0	2977	8052.616507534099	8
0	2984	8057.71533750716	9
0	2992	8092.01379958917	10
0	2994	8097.806513547738	11
0	2996	8104.888289549668	12
0	2997	8104.959880281682	11
0	3001	8106.44408284225	10
0	3005	8121.689145377069	9
0	3009	8121.826297485626	8
0	3019	8154.027844729122	7
0	3024	8158.740286903	8
0	3028	8166.929073156384	9
0	3032	8176.878472704849	10
0	3033	8188.532304134325	9
0	3037	8190.483177584722	8
0	3041	8194.041661173243	7
0	3046	8202.900725462074	8
0	3048	8214.524871524321	9
0	3049	8216.088218655772	8
0	3056	8223.002718330811	9
0	3064	8251.042257270782	10
0	3065	8261.016532943843	9
0	3069	8274.160600896628	8
0	3073	8278.452265735084	7
0	3077	8280.943997295842	6
0	3084	8289.471335990434	7
0	3090	8302.985382305641	8
0	3094	8329.15928550032	9
0	3096	8330.661308917596	10
0	3098	8332.095153278665	11
0	3099	8336.581455132078	10
0	3104	8338.668394432054	11
0	3106	8342.552214007673	12
0	3107	8343.774490333547	11
0	3111	8351.704512418982	10
0	3115	8352.668255377076	9
0	3125	8385.44626195916	8
0	3134	8412.735506190544	9
0	3135	8436.821112653402	8
0	3139	8442.053199551226	7
0	3143	8444.175490896767	6
0	3147	8463.659145186772	5
0	3152	8463.684531208383	6
0	3156	8474.366450967709	7
0	3161	8495.00293176753	6
0	3165	8495.924526954753	5
0	3172	8503.866817259114	6
0	3175	8512.533198680968	5
0	3182	8527.650178749245	6
0	3184	8542.119098750553	7
0	3186	8542.950341126508	8
0	3189	8549.300733336364	7
0	3193	8571.605860196774	6
0	3199	8585.491032638864	5
0	3203	8590.542276205559	4
0	3208	8598.69611378021	5
0	3210	8602.631883102621	6
0	3214	8617.31465942927	7
0	3216	8619.777489567484	8
0	3217	8619.862237585015	7
0	3222	8620.400308236476	8
0	3226	8625.454115774838	9
0	3227	8626.594387141905	8
0	3234	8642.914896809267	9
0	3235	8646.329724336064	8
0	3244	8674.608610945928	9
0	3247	8683.672314262956	8
0	3252	8685.216104243373	9
0	3253	8696.659724077487	8
0	3262	8715.876232358812	9
0	3263	8716.181378568765	8
0	3268	8721.255642925648	9
0	3270	8726.453281967266	10
0	3273	8737.557890863266	9
0	3277	8754.038698078591	8
0	3281	8773.181326074033	7
0	3285	8773.993231710954	6
0	3292	8785.792408508896	7
0	3294	8787.303137727083	8
0	3297	8806.719899129322	7
0	3305	8813.979617507881	6
0	3311	8835.285492182742	5
0	3318	8844.898013353757	6
0	3319	8859.086682395286	5
0	3325	8879.336050636746	4
0	3332	8887.279412409509	5
0	3333	8902.770739210115	4
0	3339	8907.039235192317	3
0	3344	8913.2849469986	4
0	3346	8921.751555119685	5
0	3350	8934.651071873446	6
0	3351	8941.817637013063	5
0	3356	8942.67855737774	6
0	3358	8942.9505728975	7
0	3361	8951.714265334591	6
0	3365	8976.265574310238	5
0	3373	8990.297445826323	4
0	3378	8991.481084079846	5
0	3381	9011.936314379531	4
0	3386	9016.59646131583	5
0	3388	9021.804962705605	6
0	3389	9024.558975592358	5
0	3394	9032.652556580056	6
0	3400	9048.625133188795	7
0	3401	9053.017675825528	6
0	3406	9062.942062135168	7
0	3409	9070.878192511093	6
0	3413	9076.985777289938	5
0	3424	9109.983179836597	6
0	3425	9122.359112518902	5
0	3429	9123.24132645765	4
0	3433	9152.567520294307	3
0	3441	9160.445482392796	2
0	3446	9166.815198953485	3
0	3448	9171.100017389625	4
0	3452	9181.247270511134	5
0	3453	9186.77679814401	4
0	3458	9191.869620893443	5
0	3459	9196.726439925006	4
0	3469	9223.093473768594	3
0	3473	9226.17850523618	2
0	3477	9235.888983068568	1
0	3486	9260.300355816752	2
0	3489	9305.533250247695	1
0	3493	9305.611064991076	0
0	3516	9360.455215648411	1
0	3517	9377.758059995967	0
0	3572	9542.667892443911	1
0	3573	9547.067058098403	0
0	3578	9547.28292918345	1
0	3579	9568.164977160955	0
0	3586	9585.467938982371	1
0	3590	9589.958229224065	2
0	3591	9602.760384722973	1
0	3598	9609.888288033008	2
0	3599	9612.358493116178	1
0	3603	9628.143342585728	0
0	3612	9644.605683649541	1
0	3614	9649.041356636197	2
0	3618	9659.676675271775	3
0	3619	9664.838240814409	2
0	3625	9683.678672281434	1
0	3629	9684.11369672015	0
0	3644	9723.631400365111	1
0	3646	9733.593502398998	2
0	3647	9735.48659343253	1
0	3653	9754.897388770384	0
0	3666	9778.636742747396	1
0	3671	9799.881971259476	0
0	3676	9803.373588009044	1
0	3677	9803.928196152955	0
0	3682	9823.475312465694	1
0	3686	9831.569549771512	2
0	3689	9832.808123416093	1
0	3693	9833.300310073906	0
0	3700	9863.78388414687	1
0	3702	9863.890468448474	2
0	3703	9877.771700951368	1
0	3709	9880.004576435664	0
0	3714	9883.991905174422	1
0	3716	9892.756458980019	2
0	3718	9894.943349250758	3
0	3720	9895.630449393926	4
0	3722	9895.995691383764	5
0	3724	9897.725946913048	6
0	3726	9915.586484704459	7
0	3731	9928.95685328659	6
0	3735	9941.265272216253	5
0	3740	9944.62085517445	6
0	3743	9948.257393374193	5
0	3747	9952.806024684387	4
0	3752	9954.454526077927	5
0	3760	10008.242913846259	6
0	3761	10012.755937070761	5
0	3765	10014.667160283761	4
0	3769	10016.954863360933	3
0	3774	10018.114042619141	4
0	3779	10052.283019783258	3
0	3786	10065.074010671476	4
0	3788	10074.234731558534	5
0	3789	10085.997458842913	4
0	3795	10102.782751457477	3
0	3799	10105.815893513075	2
0	3804	10112.007390687225	3
0	3806	10118.475984195586	4
0	3813	10130.173516304686	3
0	3818	10150.901716249331	4
0	3821	10161.349178930848	3
0	3826	10167.34181906315	4
0	3827	10168.233652788223	3
0	3831	10171.119286514305	2
0	3842	10197.387407220651	3
0	3843	10219.581004921357	2
0	3847	10225.32681305134	1
0	3852	10241.219920201696	2
0	3857	10245.07806339245	1
0	3861	10246.594202230827	0
0	3866	10264.31082510761	1
0	3871	10293.272293167882	0
0	3876	10298.213032190229	1
0	3878	10300.373423110574	2
0	3879	10301.291002073629	1
0	3883	10307.619735675262	0
0	3888	10320.105579302618	1
0	3890	10321.257768318297	2
0	3891	10324.160770088992	1
0	3900	10338.030142399722	2
0	3902	10338.043978190709	3
0	3905	10350.062362222412	2
0	3911	10379.68756730372	1
0	3917	10401.242999572176	0
0	3932	10437.11650621713	1
0	3933	10438.48204351735	0
0	3938	10439.329241337197	1
0	3941	10456.174852558048	0
0	3946	10463.504979111646	1
0	3949	10477.002017356185	0
0	3954	10485.329597443426	1
0	3956	10494.1443943812	2
0	3958	10495.439194275211	3
0	3961	10512.631204668972	2
0	3966	10515.417349673414	3
0	3969	10522.491061280298	2
0	3973	10530.14703351087	1
0	3979	10539.880785250287	0
0	4046	10758.756711029986	1
0	4047	10777.435225327714	0
0	4052	10798.30754980943	1
0	4054	10805.874923950778	2
0	4057	10816.149397690045	1
0	4062	10826.230829688487	2
0	4063	10838.798523014098	1
0	4067	10843.71133669077	0
0	4072	10846.544229534064	1
0	4073	10850.103730736468	0
0	4092	10883.271918212176	1
0	4096	10905.758270124319	2
0	4098	10911.968983077746	3
0	4100	10912.400784692629	4
0	4101	10922.385529855783	3
0	4105	10930.238766648829	2
0	4109	10934.805844944657	1
0	4113	10955.529497900803	0
0	4118	10957.87247518479	1
0	4127	10990.982891635454	0
0	4182	11192.747324951071	1
0	4184	11216.01605679756	2
0	4185	11225.512893728717	1
0	4189	11239.126301463078	0
0	4194	11245.336278666508	1
0	4195	11251.096148983775	0
0	4200	11251.731502874038	1
0	4205	11281.913258076792	0
0	4212	11294.656398565106	1
0	4213	11297.009353998509	0
0	4224	11310.928648867244	1
0	4229	11324.832777581938	0
0	4246	11353.056478917721	1
0	4248	11358.84214901794	2
0	4249	11362.042619438979	1
0	4255	11381.693571995669	0
0	4268	11412.747745526144	1
0	4271	11432.542053130455	0
0	4276	11441.984891858197	1
0	4277	11444.994326084196	0
0	4316	11542.006419070124	1
0	4320	11549.234194722987	2
0	4322	11568.257124995587	3
0	4323	11573.119793667461	2
0	4328	11577.054813772069	3
0	4329	11585.365871860596	2
0	4336	11595.427367321687	3
0	4338	11604.70897381342	4
0	4339	11605.806290346863	3
0	4344	11606.764243883562	4
0	4347	11620.795952264207	3
0	4352	11631.383064830996	4
0	4357	11654.542424225549	3
0	4362	11656.323417505057	4
0	4363	11657.435417032551	3
0	4368	11683.236641255095	4
0	4373	11696.559898634759	3
0	4377	11699.732702703763	2
0	4381	11710.846920719791	1
0	4390	11715.156501701303	2
0	4392	11718.345799551411	3
0	4396	11758.587676095063	4
0	4397	11761.269606284171	3
0	4401	11771.86811491411	2
0	4405	11776.795438601732	1
0	4410	11786.822974131325	2
0	4413	11797.453113528661	1
0	4418	11798.070462470358	2
0	4424	11812.029367629105	3
0	4428	11824.751376510994	4
0	4430	11840.284037602054	5
0	4431	11844.762089832962	4
0	4435	11849.067278275945	3
0	4439	11850.099233375026	2
0	4444	11864.230193602171	3
0	4447	11865.979228035554	2
0	4454	11871.885545795602	3
0	4458	11892.443051790858	4
0	4459	11898.899831685696	3
0	4464	11911.801358627773	4
0	4466	11915.195743225524	5
0	4469	11920.625011154102	4
0	4473	11933.516226301695	3
0	4481	11952.877849302815	2
0	4485	11955.049601978418	1
0	4490	11958.853270841558	2
0	4492	11961.967152749786	3
0	4494	11962.477412724122	4
0	4498	11972.568800151517	5
0	4501	11997.684093922866	4
0	4505	11997.954159049914	3
0	4512	12018.349875378841	4
0	4516	12024.553342540813	5
0	4517	12024.700274212366	4
0	4522	12027.157466253779	5
0	4525	12055.110702382675	4
0	4529	12059.067784516499	3
0	4533	12064.395356079479	2
0	4540	12068.427346408132	3
0	4542	12071.308764300759	4
0	4545	12098.147468069472	3
0	4554	12110.682812368738	4
0	4556	12116.571945897017	5
0	4559	12140.185906398727	4
0	4563	12140.406113451142	3
0	4567	12140.546108342299	2
0	4572	12145.137545511973	3
0	4576	12155.648678232686	4
0	4580	12177.066734252164	5
0	4582	12184.089902824042	6
0	4583	12184.860679696025	5
0	4587	12194.563342002782	4
0	4595	12210.978745456463	3
0	4599	12224.302008142082	2
0	4606	12242.251273578487	3
0	4607	12242.977545405095	2
0	4612	12252.368488576537	3
0	4618	12259.755562732876	4
0	4620	12261.951593865005	5
0	4624	12276.095125403282	6
0	4625	12283.366882688199	5
0	4629	12283.562480436159	4
0	4633	12287.119504173861	3
0	4639	12314.114340120851	2
0	4648	12323.792398268221	3
0	4650	12325.111463092922	4
0	4653	12342.558208561655	3
0	4658	12343.818149398829	4
0	4662	12349.974705591895	5
0	4663	12355.66387425115	4
0	4667	12360.124526693588	3
0	4673	12388.844236225881	2
0	4677	12393.028954546529	1
0	4684	12405.478738300903	2
0	4689	12428.306855933355	1
0	4693	12443.232505645283	0
0	4722	12500.587616399348	1
0	4724	12504.482030115408	2
0	4725	12505.504767283307	1
0	4736	12539.977286865584	2
0	4738	12552.192520368923	3
0	4740	12552.968265794991	4
0	4741	12557.922156308126	3
0	4745	12568.598481007428	2
0	4749	12572.22107646639	1
0	4754	12578.293674284297	2
0	4760	12587.027187775356	3
0	4761	12589.866267699871	2
0	4765	12596.36402352025	1
0	4772	12609.509351248282	2
0	4773	12618.158186947318	1
0	4783	12671.135677842265	0
0	4804	12704.820367487119	1
0	4805	12707.716619452417	0
0	4926	13230.049873884561	1
0	4927	13239.489880825495	0
0	4932	13254.248736735846	1
0	4934	13256.507773965195	2
0	4935	13261.698541903301	1
0	4940	13269.626437735088	2
0	4943	13282.637037839865	1
0	4947	13288.324112713902	0
0	4952	13299.142569253784	1
0	4959	13328.3942420043	0
0	5014	13552.838158159482	1
0	5015	13564.279628910673	0
0	5020	13574.770757546251	1
0	5021	13580.281714766857	0
0	5074	13680.008742116754	1
0	5078	13698.719781167124	2
0	5080	13701.54128520572	3
0	5084	13712.637446537165	4
0	5085	13717.196710561258	3
0	5090	13739.605644899391	4
0	5091	13741.183413782499	3
0	5098	13748.020889447429	4
0	5099	13755.088724798467	3
0	5103	13767.014351744881	2
0	5110	13775.635567222193	3
0	5112	13776.202451797479	4
0	5115	13801.744768247216	3
0	5119	13806.419227379747	2
0	5125	13818.720912035657	1
0	5130	13826.510842263969	2
0	5136	13844.400005067962	3
0	5137	13845.999600179872	2
0	5142	13846.652079165037	3
0	5145	13864.689087316201	2
0	5150	13876.611892840917	3
0	5154	13886.271769085974	4
0	5155	13898.004404719767	3
0	5160	13898.370108220836	4
0	5161	13898.670279665619	3
0	5169	13918.002887401993	2
0	5173	13937.368630638171	1
0	5178	13941.038311797432	2
0	5183	13961.035271989476	1
0	5190	13978.58692661353	2
0	5191	13978.761076535513	1
0	5197	13993.624010458836	0
0	5202	14004.932908677826	1
0	5204	14005.488571351348	2
0	5205	14020.446406835594	1
0	5209	14021.719996159351	0
0	5218	14035.593629310998	1
0	5220	14036.487629363076	2
0	5222	14042.884370356024	3
0	5223	14053.774068482595	2
0	5232	14061.010470809534	3
0	5233	14062.034858186416	2
0	5238	14063.157059023492	3
0	5241	14090.698926100116	2
0	5249	14112.621184069722	1
0	5253	14119.748916685589	0
0	5258	14123.517539520675	1
0	5259	14130.833463833559	0
0	5266	14155.60188710439	1
0	5271	14175.071325011591	0
0	5276	14178.489448240671	1
0	5278	14181.812828025853	2
0	5280	14203.221554054087	3
0	5281	14204.744641917925	2
0	5286	14207.622498616558	3
0	5289	14215.452667163413	2
0	5293	14220.340163983767	1
0	5298	14226.412267819599	2
0	5301	14245.449920540783	1
0	5307	14254.894702025655	0
0	5318	14267.244731106051	1
0	5320	14269.243865794629	2
0	5322	14285.446201405217	3
0	5323	14287.0013909478	2
0	5327	14295.319351407407	1
0	5332	14298.715717299963	2
0	5334	14302.359158383742	3
0	5335	14306.3703428197	2
0	5341	14311.3696857924	1
0	5346	14321.609679662593	2
0	5353	14364.996691279867	1
0	5358	14373.690648350867	2
0	5361	14386.516549863871	1
0	5365	14391.184009588417	0
0	5370	14391.448237654531	1
0	5373	14409.254490382435	0
0	5380	14426.709403439293	1
0	5382	14426.804579705403	2
0	5384	14432.403012487747	3
0	5386	14441.229161811032	4
0	5390	14449.512052844692	5
0	5391	14450.947105840781	4
0	5395	14452.006428555121	3
0	5399	14454.211152675132	2
0	5404	14455.0675331247	3
0	5407	14489.007874450223	2
0	5416	14501.049697163134	3
0	5417	14508.040946986788	2
0	5421	14516.827060587528	1
0	5428	14530.036114535897	2
0	5433	14551.859956565499	1
0	5438	14556.110059647827	2
0	5440	14572.115769000781	3
0	5441	14579.363892913458	2
0	5447	14583.387907782462	1
0	5455	14606.984037828929	0
0	5460	14610.016861482285	1
0	5463	14642.502377380491	0
0	5474	14665.782402073302	1
0	5476	14668.267994827077	2
0	5480	14671.632597946245	3
0	5481	14677.716505878545	2
0	5488	14682.269548450098	3
0	5489	14685.379807407392	2
0	5498	14725.46038944678	3
0	5500	14729.327303912222	4
0	5501	14734.288916327685	3
0	5505	14749.293565259507	2
0	5509	14758.343276218435	1
0	5514	14762.337642395709	2
0	5515	14765.93011791185	1
0	5520	14767.842802994918	2
0	5526	14780.981166367721	3
0	5530	14784.683099781566	4
0	5532	14787.006655124083	5
0	5534	14797.119575644715	6
0	5538	14804.882817757959	7
0	5540	14816.95619651356	8
0	5541	14826.764812515919	7
0	5546	14828.079418664034	8
0	5547	14831.950934454771	7
0	5552	14835.536864180303	8
0	5553	14844.01380529347	7
0	5559	14849.619629160581	6
0	5564	14870.480792939117	7
0	5566	14870.639813922068	8
0	5570	14876.075267814878	9
0	5572	14876.872325630785	10
0	5577	14891.588018888307	9
0	5581	14900.364960230552	8
0	5586	14905.575843169438	9
0	5587	14914.906121349017	8
0	5592	14921.616146471755	9
0	5593	14927.373334520072	8
0	5600	14940.767934395899	9
0	5608	14955.223957727311	10
0	5610	14963.934454849541	11
0	5612	14964.234697447129	12
0	5614	14967.589475643031	13
0	5615	14975.788382978094	12
0	5619	14980.521011236307	11
0	5623	14980.887145948784	10
0	5630	14988.166106270537	11
0	5631	14999.482788906406	10
0	5639	15018.919162683915	9
0	5645	15029.468485907483	8
0	5650	15031.796751337953	9
0	5651	15042.422412017524	8
0	5661	15079.504248645627	7
0	5666	15087.27754411131	8
0	5670	15099.951890962926	9
0	5671	15100.93034498624	8
0	5675	15103.192127884685	7
0	5679	15116.622153497836	6
0	5686	15124.457696128471	7
0	5689	15142.871699270423	6
0	5698	15161.676091937822	7
0	5699	15170.739359557213	6
0	5703	15171.236624514071	5
0	5707	15179.135179624562	4
0	5716	15210.723114999134	5
0	5719	15217.860423715236	4
0	5723	15221.864071107486	3
0	5727	15240.076621539386	2
0	5731	15241.447216434219	1
0	5736	15241.844650211843	2
0	5746	15282.509137928834	3
0	5747	15285.367556539465	2
0	5751	15297.059892845117	1
0	5756	15298.979765414826	2
0	5760	15311.177924924933	3
0	5763	15326.606545380956	2
0	5767	15348.224882418513	1
0	5771	15361.056455778492	0
0	5790	15403.154440451716	1
0	5791	15404.681259059473	0
0	5812	15458.387650379681	1
0	5814	15478.09379287644	2
0	5815	15478.443397971759	1
0	5823	15512.618872836132	0
0	5860	15620.274311968922	1
0	5863	15629.548248136588	0
0	5932	15867.038625390845	1
0	5933	15867.161025388419	0
0	5940	15877.301466399662	1
0	5941	15885.233105021143	0
0	5946	15891.779902374781	1
0	5948	15893.4704562314	2
0	5952	15902.279538073345	3
0	5954	15915.386603298596	4
0	5956	15917.106398008966	5
0	5957	15928.806796380125	4
0	5962	15929.230742655779	5
0	5966	15934.358108817721	6
0	5967	15941.467904506509	5
0	5972	15946.466889614071	6
0	5973	15947.835975373108	5
0	5979	15960.497045250677	4
0	5984	15969.653310630012	5
0	5986	15973.971561023664	6
0	5988	15982.180314058039	7
0	5992	15992.83951559916	8
0	5998	16003.958807156656	9
0	5999	16005.965829656991	8
0	6003	16007.366193237675	7
0	6007	16015.495600381478	6
0	6012	16018.756216851645	7
0	6013	16027.401058404498	6
0	6023	16054.247193710244	5
0	6030	16079.445837363376	6
0	6032	16082.483463658714	7
0	6036	16092.661596993274	8
0	6037	16095.475089689039	7
0	6041	16105.320873477564	6
0	6045	16107.719466907643	5
0	6049	16112.692278639662	4
0	6060	16132.368392532922	5
0	6064	16133.508429831077	6
0	6066	16158.838627054218	7
0	6067	16170.121239018822	6
0	6071	16183.99191662415	5
0	6075	16185.579595471722	4
0	6080	16192.25457633191	5
0	6081	16194.345881595936	4
0	6088	16204.50513546621	5
0	6090	16211.811459082628	6
0	6097	16246.151135177179	5
0	6101	16253.294986486318	4
0	6105	16253.754926608103	3
0	6110	16263.06820786577	4
0	6111	16265.154205033718	3
0	6120	16292.802744780302	4
0	6126	16300.361672813546	5
0	6127	16313.160105093168	4
0	6131	16315.591572265611	3
0	6136	16317.953419551335	4
0	6138	16319.165597309338	5
0	6139	16323.501145446236	4
0	6147	16351.480501223164	3
0	6156	16367.415728911892	4
0	6158	16382.822359915512	5
0	6159	16398.44397967307	4
0	6163	16398.449418055158	3
0	6168	16404.773840602837	4
0	6170	16405.642214742127	5
0	6171	16405.973996042215	4
0	6179	16426.778296988814	3
0	6184	16428.514554834443	4
0	6189	16459.349614207498	3
0	6194	16463.258854811381	4
0	6195	16470.598589147296	3
0	6199	16471.82032759465	2
0	6207	16486.932902969277	1
0	6216	16529.692495021405	2
0	6217	16534.305268025509	1
0	6221	16547.253350894901	0
0	6226	16548.478253074704	1
0	6227	16553.780340337013	0
0	6232	16554.102077859008	1
0	6233	16555.85608093172	0
0	6244	16579.158326602014	1
0	6247	16606.525651751546	0
0	6266	16628.659179283008	1
0	6267	16633.029630710212	0
0	6278	16659.022367593813	1
0	6280	16670.923987918655	2
0	6282	16681.604788237613	3
0	6283	16686.387034176772	2
0	6287	16702.766630090597	1
0	6292	16714.343146006741	2
0	6293	16714.510040806608	1
0	6297	16717.044454519287	0
0	6378	17033.78464613343	1
0	6380	17046.86732245437	2
0	6384	17048.320645259341	3
0	6385	17048.558810806406	2
0	6392	17068.969499544949	3
0	6394	17077.79872239182	4
0	6398	17090.727199980988	5
0	6399	17092.786245890473	4
0	6403	17104.415784974403	3
0	6407	17115.013239548802	2
0	6411	17118.975260535144	1
0	6422	17145.040781681925	2
0	6425	17155.600057616333	1
0	6430	17156.171874242088	2
0	6432	17162.416099723467	3
0	6434	17163.216099270312	4
0	6436	17176.563511700682	5
0	6438	17177.074623823822	6
0	6440	17192.254342640074	7
0	6443	17193.406087828156	6
0	6447	17198.493004826505	5
0	6452	17198.591076375734	6
0	6453	17200.838806008538	5
0	6459	17228.343821026398	4
0	6463	17231.079770338833	3
0	6475	17263.815228235783	2
0	6480	17278.007193021106	3
0	6481	17278.185200512367	2
0	6487	17296.303825578495	1
0	6494	17312.448518762862	2
0	6495	17313.591209719951	1
0	6502	17333.085020616963	2
0	6503	17334.332126397085	1
0	6509	17348.595561485869	0
0	6516	17365.793214609827	1
0	6520	17380.111364255844	2
0	6521	17381.173912108154	1
0	6525	17393.424339369751	0
0	6532	17398.534600602438	1
0	6533	17412.656169261558	0
0	6540	17430.093098622547	1
0	6541	17430.21246679338	0
0	6546	17436.874721999561	1
0	6550	17462.457477886046	2
0	6551	17462.869915984097	1
0	6555	17464.24846162388	0
0	6588	17544.901127980536	1
0	6589	17549.981372937488	0
0	6594	17561.695234644753	1
0	6599	17586.615307411529	0
0	6604	17591.111501230678	1
0	6606	17594.220650986321	2
0	6608	17601.115484661608	3
0	6609	17602.997548903199	2
0	6613	17615.647346396392	1
0	6619	17621.672919817016	0
0	6626	17633.79244935261	1
0	6630	17637.568310386941	2
0	6632	17645.208273906149	3
0	6633	17647.882251729143	2
0	6638	17648.141935215958	3
0	6639	17665.052810197406	2
0	6646	17671.731092256203	3
0	6647	17671.828163715689	2
0	6652	17674.82335009334	3
0	6660	17691.936217143705	4
0	6661	17699.828748422676	3
0	6666	17700.512163093623	4
0	6667	17733.003360768875	3
0	6673	17747.90661584799	2
0	6677	17750.728606140696	1
0	6681	17752.294998572794	0
0	6690	17769.485346799825	1
0	6694	17778.297124591473	2
0	6698	17783.944133666328	3
0	6700	17789.454891953232	4
0	6701	17805.423935532985	3
0	6706	17806.954891947241	4
0	6707	17809.679237363568	3
0	6714	17823.233985696814	4
0	6715	17828.159968782126	3
0	6720	17834.360608905772	4
0	6721	17836.380566606669	3
0	6730	17852.063069483421	4
0	6733	17878.397263937195	3
0	6738	17879.000407564435	4
0	6739	17879.425016952209	3
0	6744	17882.086259632356	4
0	6746	17886.158086302187	5
0	6747	17886.511296443217	4
0	6754	17900.375047394055	5
0	6757	17908.349515668891	4
0	6764	17928.48735532218	5
0	6767	17945.840659409684	4
0	6771	17950.553033760256	3
0	6775	17969.444107129725	2
0	6781	17971.603257999056	1
0	6788	17997.177420155263	2
0	6792	18021.727856389358	1
0	6798	18034.121331333289	0
1	0	0	0
2	20	97.47993272911	97.47993272911
2	28	126.379835093089	73.27026076028
2	36	136.659821271953	120.74233118064
2	38	139.709035501511	70.855438369064
2	52	206.133289180753	117.73956352044
2	57	237.011992349417	104.14777824838
2	71	282.308210759443	136.36634531398
2	76	290.146791364942	52.939196284649
2	81	307.553665841998	100.46175593445
2	89	338.450001015051	140.54305385261
2	116	393.323171963506	115.29773256498
2	120	413.706121447455	89.933269399778
2	122	417.690228633398	109.33406975507
2	136	454.546659059257	103.18336713584
2	138	456.873230908801	118.34383302601
2	156	502.617185951953	118.58323696766
2	160	509.061484142694	127.93309570424
2	162	509.781202623294	125.36788225498
2	176	548.632663374022	156.38392679217
2	181	556.623175998577	111.25030898197
2	183	566.477407774693	143.08279010911
2	185	580.228781271459	168.78908514224
2	210	646.171259076287	137.29234041286
2	212	651.259636561384	184.71008691503
2	222	678.209956500343	80.241100913391
2	224	680.092681002804	191.3311824427
2	236	715.570777997215	98.064640928849
2	242	733.402186144057	113.55694087984
2	244	755.605410112497	113.29679881762
2	264	795.702814151589	128.95501791113
2	266	801.742883463651	132.97439171701
2	268	810.52407242462	166.17256349924
2	279	843.751304706751	160.73114109345
2	292	876.613317580698	118.35460827732
2	294	882.500573503812	90.20670615432
2	302	913.778981728923	132.18280189457
2	320	952.441326158244	105.26746934967
2	324	952.925405707075	120.56672790744
2	334	982.319728933897	106.62214561292
2	336	988.04880543571	134.36814031655
2	352	1032.103652893462	101.91783930356
2	357	1047.347581817987	134.82434906727
2	368	1072.038430004491	125.75666841856
2	373	1074.823739984273	122.24754518125
2	375	1095.102100792743	131.16782292011
2	383	1108.05607807112	126.18998278277
2	391	1127.887766597885	100.74699979232
2	399	1152.429146420732	101.24360827024
2	401	1155.851642224632	94.051654141808
2	420	1190.02518179891	85.635205794725
2	429	1224.638773909195	98.692100222281
2	434	1236.034088719725	89.431474819903
2	444	1263.55987214197	96.8966197583
2	446	1264.531544152842	105.04683608657
2	468	1296.340137260723	66.655997644778
2	470	1301.746922882106	125.41095676665
2	472	1315.575450550757	128.04026303382
2	485	1357.778816622293	90.702989422955
2	490	1379.343434403354	114.31401950107
2	492	1380.338715677657	129.47438835409
2	497	1417.677208093623	161.8112508705
2	514	1447.341820348223	168.81676212032
2	516	1450.909684163273	156.98308874444
2	533	1521.217473181834	87.533739474127
2	538	1530.627858391462	98.377632370013
2	540	1542.230112432936	99.200927397031
2	548	1557.112529753718	127.87812393615
2	562	1585.825707583526	108.09160157554
2	564	1608.742067950603	140.10619883845
2	584	1667.480550423321	115.54723257726
2	586	1673.281051874539	95.072667403817
2	588	1685.651272010184	119.89483441903
2	590	1686.119838494508	120.73731031177
2	595	1712.153015435512	81.300253713815
2	614	1773.329256424859	111.85987017781
2	630	1824.752268225476	108.85591686017
2	640	1849.48471750872	93.644926793617
2	652	1868.04791854259	99.955340452468
2	654	1885.361063607483	122.04354297432
2	662	1891.933259831624	119.72004077184
2	664	1910.217956060654	121.14516149258
2	684	1955.958427111712	127.41928533051
2	686	1956.924880451566	140.94513721882
2	692	1968.86811229469	151.72692181962
2	694	1981.599207547599	139.6777912926
2	715	2038.263083251151	148.2861384519
2	723	2056.443065562351	205.0333235007
2	725	2061.828857235066	121.24808388919
2	727	2072.789837096309	124.49530986953
2	729	2073.409210823701	138.03546570877
2	740	2118.203825090313	81.735997817326
2	745	2128.384030040425	133.13262758505
2	747	2151.804091132541	103.15537160538
2	758	2198.574958978462	91.036633902832
2	772	2256.320861717873	85.640625813931
2	788	2280.626536788693	98.889533471715
2	800	2303.437356781628	100.91624073302
2	808	2328.37060445956	119.34516805143
2	824	2357.222873283071	100.66543655703
2	826	2359.534149451964	117.54718958061
2	834	2381.911506064087	104.84127570829
2	838	2398.130516263042	137.72785072016
2	856	2437.616746570851	156.94103022349
2	858	2437.793521906516	143.72699374193
2	862	2449.753633096011	126.07748357166
2	870	2475.720794290487	181.03574029469
2	884	2522.227115762965	153.49980437584
2	886	2527.176726147429	176.01371633467
2	900	2556.484679845378	186.45511116252
2	904	2568.967726687197	198.60683611591
2	906	2569.039938544907	182.45622752906
2	926	2619.914597087183	153.37288132101
2	928	2620.421835236702	180.78695391045
2	930	2636.804391224031	178.5172727924
2	948	2670.408059253145	198.93802704272
2	954	2681.459965528207	144.81151377409
2	956	2692.769273487941	151.79889740194
2	958	2701.960878519275	141.75026390147
2	982	2742.045729432984	128.05548257703
2	984	2757.667225102729	157.80163239286
2	990	2769.36124747322	166.55115401709
2	1000	2799.258838228717	143.66399227266
2	1004	2801.614768687655	153.09185423686
2	1008	2821.753287811354	101.35918251728
2	1024	2849.393998428076	118.97150480363
2	1028	2872.519185123116	134.22664327621
2	1030	2875.088010080765	147.50802668417
2	1042	2906.922482325701	167.53179302777
2	1058	2936.245942912506	124.84490373909
2	1070	2950.827045226221	150.33916034815
2	1080	2974.270091361717	109.00275765095
2	1084	2979.990061804241	140.69164080556
2	1098	3014.085153430941	135.43176228045
2	1106	3031.100120319755	110.90889753728
2	1108	3034.086331019845	149.35350868478
2	1112	3042.72886174913	146.32756399335
2	1124	3084.804964571824	162.80699690772
2	1126	3094.248093788285	149.50102997525
2	1142	3122.254897582546	199.08637193951
2	1150	3133.469244563681	177.91166948366
2	1156	3148.289292358784	194.18009948106
2	1164	3162.183305509886	188.91051750927
2	1170	3194.405887844735	220.93839165731
2	1182	3219.356845853715	239.51767270871
2	1184	3229.260333710465	204.89948077662
2	1186	3234.821527160913	193.22732439116
2	1212	3301.947826324761	249.64553653314
2	1214	3308.178513458501	168.20215524387
2	1216	3312.25125941492	195.85279303107
2	1218	3314.776190607219	190.49657278442
2	1242	3357.993430716565	216.08112305578
2	1244	3359.092541603449	109.81285561658
2	1246	3365.542267771519	211.42030321078
2	1248	3372.870534192711	170.46824102181
2	1258	3405.978106536809	156.14957854133
2	1274	3433.036502078852	157.69072879325
2	1276	3447.624778129012	177.58086687155
2	1282	3466.649218270209	130.62459353666
2	1296	3493.211063278194	155.40979089155
2	1301	3504.573899882008	163.2994962312
2	1303	3505.30095522294	103.71352132076
2	1320	3551.344849368748	150.43485257142
2	1330	3576.56384528392	103.76707085221
2	1332	3581.124625428369	172.2030884503
2	1334	3582.023589863371	107.15339869882
2	1340	3598.896117342421	83.30004243243
2	1348	3639.470381002609	109.09590569383
2	1359	3660.221381859022	97.659895765092
2	1364	3670.484360255056	128.90971747967
2	1369	3692.232415782518	129.42874478736
2	1380	3729.74670394174	86.991763412178
2	1385	3735.205777474377	88.893301787688
2	1393	3760.341848802567	81.12570457439
2	1407	3784.524343991045	74.729422348631
2	1409	3796.734375071165	63.926201570162
2	1414	3824.37741256905	69.64538784786
2	1428	3859.077506996879	90.575204514807
2	1433	3861.66400773598	86.394782879935
2	1438	3919.958938770449	66.706660220098
2	1455	3971.879247419152	112.67949831064
2	1457	3974.744850828456	130.0627243617
2	1480	4031.235077937759	94.25926273984
2	1482	4036.064697744195	107.40783451763
2	1484	4045.887584318158	114.64995102791
2	1504	4079.227086576021	97.826987714105
2	1506	4089.800218139346	104.78092396958
2	1511	4115.603611520591	133.00094527607
2	1516	4134.769712459539	107.05637039895
2	1530	4160.450443868476	85.055083302878
2	1535	4180.416289078926	113.6942256208
2	1542	4195.256439300306	135.79595264587
2	1570	4259.545624638767	94.372373507235
2	1572	4260.360268850663	127.81640132874
2	1576	4265.945014628866	81.84972867225
2	1578	4278.551542170608	137.42943793326
2	1598	4338.553099838972	124.51742145944
2	1600	4339.173732480252	151.77258627722
2	1602	4341.450917299466	130.2301420285
2	1606	4364.402058149179	140.85958637681
2	1624	4412.875042074563	148.75000279901
2	1629	4414.357989365001	166.29568552787
2	1631	4423.850966788669	181.77572301037
2	1633	4434.290050901143	95.7768454076
2	1641	4457.708945851081	104.30817512958
2	1652	4491.152387303808	118.10104972786
2	1654	4504.805309904394	92.097720722974
2	1662	4534.135915948593	77.421740358289
2	1670	4578.888052727587	99.353010452216
2	1684	4612.85497950697	88.647140209625
2	1692	4659.213509379728	92.727533789449
2	1712	4692.975323031123	87.530076313151
2	1714	4705.27239485484	99.985455066991
2	1722	4717.094112408736	111.15220153584
2	1730	4744.846325950851	84.518970044552
2	1732	4745.163015275024	88.171574531174
2	1749	4777.342103503438	67.92946424159
2	1751	4786.501209829264	94.302864717694
2	1753	4798.180497112079	129.4635547364
2	1755	4799.015660268672	63.84521622462
2	1769	4867.92731202351	114.41143204122
2	1780	4899.383341627573	88.486318922214
2	1785	4912.031246171569	109.26248080116
2	1796	4947.640604112232	71.668408189492
2	1798	4956.793640664852	95.498844082562
2	1818	5025.522361975373	116.68310134852
2	1820	5032.151397415172	103.78629632894
2	1830	5057.472053597041	86.683863373897
2	1842	5114.137715698087	102.26847579767
2	1847	5118.802810112848	104.3559972916
2	1861	5150.523653346595	100.64977413894
2	1866	5153.477654131656	101.13558549385
2	1868	5168.438972747359	112.25499258658
2	1884	5217.979328517407	95.343267837005
2	1886	5218.869563662934	157.02413478521
2	1895	5248.082916271746	108.0545483746
2	1900	5260.722770812791	109.08861115598
2	1924	5318.617960948169	118.60277340819
2	1928	5330.900417972748	129.64890745981
2	1932	5337.378467984281	123.25246135429
2	1954	5391.838866576511	124.31509561727
2	1966	5409.107284637898	114.39783222227
2	1974	5426.549615086594	166.75572776822
2	1980	5443.735576284352	167.21753796619
2	1982	5456.00215365321	146.40454197603
2	1984	5462.696605515351	160.03757150126
2	2002	5506.694382331987	178.40516232782
2	2004	5510.749077620608	175.06027402143
2	2006	5512.366443322112	163.68942518705
2	2008	5516.974918123475	157.97383088967
2	2021	5557.158280055273	183.70514807076
2	2029	5571.069262701003	168.3522763443
2	2036	5589.625166837709	195.66296960328
2	2038	5599.81828295278	215.03111177127
2	2047	5636.354809048982	231.60150985274
2	2058	5657.673196129106	75.491124221945
2	2060	5664.711012338332	238.55606334953
2	2062	5676.546117676721	105.72179963195
2	2067	5712.23534973464	72.665549630082
2	2075	5740.876890474043	156.43135191904
2	2098	5848.670634457809	79.250634510401
2	2100	5855.918898849809	134.35041289186
2	2102	5860.928874794096	93.555244438139
2	2110	5885.984728806364	97.256012865025
2	2118	5951.220946663569	73.057104637771
2	2123	5957.149386919911	162.89091729655
2	2150	6047.924677548527	91.558020129655
2	2162	6071.86509897211	102.27684553664
2	2164	6072.245010684107	91.099932703729
2	2172	6103.288860432552	123.35726845567
2	2176	6111.010799455999	121.41192571428
2	2188	6130.960826742643	110.76862128439
2	2200	6159.462291795634	159.65799009874
2	2212	6187.760251951101	158.17588585028
2	2214	6190.823390860145	93.107189304805
2	2220	6192.895386287605	144.24530156233
2	2232	6232.543857120924	127.08370622076
2	2246	6258.103861008963	103.37470022946
2	2256	6261.764394238937	131.27406419976
2	2264	6285.551960092435	128.6421620405
2	2266	6293.679929348215	160.86376597371
2	2276	6318.972605066563	139.14124631335
2	2284	6326.440145043686	131.29800464499
2	2290	6350.973262542604	147.05403860307
2	2294	6366.732323854613	162.42693781122
2	2318	6421.026036794666	178.99834861446
2	2320	6426.20241677743	182.49552779656
2	2322	6437.84217024224	177.35388253769
2	2324	6437.853178765513	178.73366856863
2	2344	6476.198110149863	201.28877435692
2	2350	6487.929630244378	206.6256811966
2	2352	6492.908951396399	172.8077671568
2	2354	6500.510392172972	224.24393881907
2	2378	6549.839085236627	184.22350133556
2	2380	6552.118915163231	177.90488720739
2	2384	6578.55583231439	202.8815534817
2	2396	6593.841358010606	187.74956102525
2	2404	6612.774624276022	128.15704732715
2	2410	6622.143740312955	166.00878367681
2	2412	6636.118959569621	149.44979742281
2	2414	6644.191733734053	142.65985850114
2	2426	6674.864229569092	135.1412539661
2	2431	6685.981443545553	127.40073940835
2	2433	6697.906603462342	158.10627139561
2	2441	6732.854405657677	148.84150147408
2	2449	6753.402786925362	97.209220959447
2	2457	6787.039537430984	184.26647093523
2	2465	6855.552197642648	122.52030560744
2	2482	6887.971116450955	102.06003187452
2	2488	6906.751159558017	131.20065612394
2	2494	6923.370678435365	69.744775800828
2	2518	6971.764338315399	108.00473408484
2	2520	6978.052187664209	119.17117683088
2	2522	6981.312326588606	104.36266635673
2	2536	7031.451174301031	140.87880850717
2	2554	7075.779251750223	132.68424686544
2	2556	7076.027238250129	170.12036481372
2	2558	7077.861291815641	127.6092334843
2	2560	7089.575780663785	132.06989960832
2	2576	7141.963049898224	129.6974991481
2	2586	7171.638966148581	203.68450022617
2	2588	7174.005699951425	203.77402088289
2	2590	7179.441575780243	149.02776663134
2	2620	7217.267996555914	167.97136236568
2	2622	7218.31731276113	155.81120068527
2	2630	7228.382210236789	113.41958772296
2	2634	7235.832219760963	87.721706833768
2	2656	7293.86573320295	124.52415394983
2	2660	7308.195178725349	114.10417075771
2	2662	7308.574604694075	112.09829932694
2	2666	7322.039819213842	133.25871209916
2	2686	7364.666984829274	166.49320498591
2	2688	7370.971292680699	158.85585038723
2	2692	7377.758550188915	174.80859915656
2	2694	7390.932920466364	167.73579527595
2	2710	7443.161539100207	218.63231116497
2	2712	7445.96552645337	220.1230348146
2	2728	7464.938694834069	228.28638142368
2	2736	7489.084780523321	243.8673065367
2	2738	7489.094681287928	189.99605360166
2	2740	7497.427567922808	265.44552863319
2	2754	7527.801043633058	212.52661342119
2	2776	7571.254493185212	194.42172056395
2	2778	7582.87938593496	172.04413472842
2	2784	7591.935863455942	243.24170174021
2	2796	7618.949888325954	162.75482930269
2	2798	7626.562839588114	166.85690766905
2	2816	7667.576728734867	211.27834398952
2	2822	7670.95091713645	187.55126220428
2	2826	7690.801388725476	193.12951072823
2	2830	7701.859042455344	201.16335592922
2	2860	7754.236981104148	222.48538921373
2	2862	7755.537022371746	252.1091586518
2	2864	7766.738392603481	228.33776228138
2	2868	7790.596773455543	278.2745406365
2	2886	7835.981184508797	239.37043557876
2	2888	7837.889312893699	275.82189210443
2	2898	7851.286091693119	239.46101072639
2	2900	7871.357307684659	303.35094571977
2	2918	7912.435018205713	252.36986643389
2	2922	7916.301430278141	299.91141684744
2	2928	7949.122373938475	271.81598962071
2	2936	7954.673855084553	326.4403455743
2	2952	7981.736219033023	272.90649045987
2	2954	7982.486786158447	282.10512657335
2	2958	8003.241962412419	272.28517254005
2	2962	8017.234762547091	283.22644971193
2	2982	8052.797965976265	317.86386302274
2	2986	8062.396608499863	310.3563176915
2	2988	8077.932074957592	306.47846919231
2	2990	8083.091376692531	334.83065621853
2	3014	8139.540477909718	314.12521128544
2	3016	8140.041863945893	313.40220867915
2	3018	8151.863821260417	305.52630506663
2	3026	8161.75548397957	317.97736668311
2	3030	8171.603620951671	267.96808027832
2	3054	8221.689947978754	320.08290297321
2	3058	8230.675288931512	277.44564972045
2	3060	8231.442901764009	261.14544882855
2	3062	8234.664490976437	321.25916457528
2	3082	8285.195398794056	227.4800612869
2	3086	8293.201344309175	256.16612325684
2	3088	8299.838613543114	288.6648312483
2	3092	8317.559276969991	332.69354452635
2	3120	8358.374291993547	253.48600244388
2	3122	8365.803169333529	267.99665578579
2	3124	8375.216395811516	283.20259622235
2	3130	8386.604501761318	227.86421485832
2	3132	8402.132448956199	225.25397625135
2	3154	8465.938511285844	299.00943812946
2	3158	8480.817611626454	266.29274010213
2	3160	8483.860604266036	280.95987880396
2	3170	8496.065778456928	273.06306012612
2	3174	8506.487066474246	203.50168416861
2	3180	8523.875167638259	234.40383164783
2	3188	8545.874583531549	294.83232626077
2	3198	8573.415313765783	244.25602826546
2	3212	8609.569978146967	278.90866922937
2	3224	8624.05149541425	291.95634213558
2	3232	8630.039655383789	291.37126095173
2	3240	8651.888727449436	309.33651344176
2	3242	8654.797604756695	242.06209856615
2	3246	8675.676117519728	211.99158631135
2	3258	8709.96275846226	206.09594120315
2	3260	8715.073830848766	240.70737988106
2	3272	8733.947200036038	206.29702128679
2	3290	8780.957514043458	238.8384152929
2	3296	8792.116852578732	249.16651145222
2	3302	8806.790038838492	204.15815573587
2	3304	8810.937921595336	212.24180781513
2	3310	8835.265899313078	215.48840974559
2	3316	8843.752550256461	226.43789082719
2	3324	8872.907661447802	247.45354567296
2	3330	8883.695414763385	263.29510652691
2	3338	8902.875044171343	228.26643322541
2	3348	8925.63999791089	282.72510110162
2	3360	8944.077238580901	258.86113433753
2	3370	8978.310309807033	262.43407744822
2	3372	8979.645900170716	258.39025724507
2	3380	9008.487376181592	222.6949676727
2	3396	9032.995980646812	306.54269867955
2	3398	9040.71111610153	195.81310274777
2	3408	9066.754224992941	179.47481258343
2	3418	9086.378168395063	299.07503066798
2	3420	9088.348167872283	166.5966127526
2	3422	9107.293655166925	194.00870816833
2	3438	9154.869633377919	220.21856150447
2	3440	9157.27531559091	214.32474269341
2	3450	9174.388717663691	182.90763358384
2	3464	9199.256763673006	256.57820629527
2	3466	9215.705923557362	199.10946224153
2	3468	9216.997594142529	195.19263143692
2	3482	9248.655257422449	216.00270084239
2	3484	9250.056996643994	201.4318634552
2	3488	9278.685430866352	215.74336873118
2	3498	9318.965356069018	208.98217623242
2	3512	9352.359871360179	171.11260084905
2	3514	9357.564734620452	190.74953566697
2	3522	9385.478147242487	214.37812985286
2	3530	9410.57612776254	150.27577194579
2	3538	9437.391755184405	245.52213429096
2	3543	9450.820689704042	118.26964302307
2	3545	9452.050064237018	100.40576419183
2	3553	9469.116772154719	108.66155650631
2	3564	9529.578432526865	116.1393784014
2	3584	9578.578805621798	122.08769510353
2	3588	9589.691800501666	121.66651088149
2	3596	9603.929702054585	90.730571950851
2	3608	9638.811702919902	96.143810475991
2	3610	9642.233644973872	125.45953380134
2	3616	9657.929162013461	115.97713073788
2	3624	9681.175617226592	133.89268804314
2	3637	9708.879762629378	118.92153340531
2	3639	9720.972207172513	135.50426819014
2	3652	9737.203461772548	127.31517373954
2	3661	9758.436919338961	113.83123568942
2	3668	9788.113197400022	128.43652212825
2	3670	9789.947333028639	140.90597639244
2	3684	9828.422695352814	104.7912949877
2	3688	9832.240895725847	110.03684757311
2	3698	9855.648666731136	122.05516433214
2	3708	9879.89367598134	115.37521671082
2	3728	9919.677941524829	141.04119877743
2	3730	9920.516936259936	117.14334825089
2	3742	9947.266819195812	115.6972694243
2	3754	9962.84042301531	139.36511054962
2	3756	9966.475268722899	102.58480027442
2	3758	9977.736175540585	113.95229139372
2	3776	10037.828520253241	145.07206127322
2	3778	10041.679295770658	146.7359465199
2	3784	10055.398938690004	171.40703351558
2	3794	10086.177672680487	190.54722328656
2	3808	10122.737406562	226.74171517824
2	3810	10123.850116008184	208.26363130372
2	3812	10125.597040427398	227.87109351435
2	3820	10154.289481126484	209.66862595203
2	3836	10187.957674168913	179.71476032265
2	3838	10188.34800203203	233.8934759541
2	3840	10195.035318800216	176.92127618108
2	3854	10241.602772739469	176.52876206799
2	3856	10244.729928864202	170.49519730567
2	3868	10272.335674408934	160.32828372171
2	3870	10279.437377358519	160.96139316293
2	3896	10324.574950998457	157.23313193531
2	3898	10333.002203448916	91.78228324722
2	3904	10340.732004945347	189.83028869602
2	3910	10366.106874699103	168.71946747845
2	3916	10389.122722019031	90.909689828802
2	3922	10402.183410122268	137.87258501466
2	3924	10432.5245433287	132.15112021813
2	3940	10447.076988357271	126.97140905465
2	3948	10465.055823685798	143.7980553675
2	3960	10496.430992638909	158.40085023919
2	3968	10517.933133502093	179.88915531138
2	3978	10538.938307609043	102.58693949634
2	3984	10552.438983969495	113.1097426323
2	3986	10554.778313182021	117.66180696489
2	3994	10577.241193313219	113.73621420157
2	4002	10598.18840293846	82.771053265046
2	4004	10606.666299090755	121.33670164733
2	4009	10633.483892695787	138.04469842058
2	4014	10639.406928653783	145.26253427258
2	4022	10681.835327952675	99.315489020676
2	4039	10723.271881927959	81.45065571484
2	4041	10735.912965895756	91.559672071105
2	4056	10813.163446681792	120.93073682433
2	4078	10861.611576928437	141.39711880054
2	4083	10867.989516841155	109.23280581117
2	4085	10868.175187532584	152.27560157292
2	4090	10879.745381298487	81.437831489057
2	4094	10883.487182758178	146.22471952301
2	4120	10958.233943215639	111.68971368158
2	4122	10962.896611071396	157.02168712062
2	4124	10965.299261666643	139.06843197816
2	4126	10978.614131014783	100.51427819742
2	4135	11013.905256123577	130.6333379114
2	4149	11049.876103311582	137.47531861895
2	4151	11050.240661453381	138.27167837563
2	4153	11061.375543485293	155.61727336097
2	4158	11108.636805873658	150.76433068887
2	4166	11145.466162456185	128.91705331525
2	4168	11147.399471950536	107.11931397861
2	4202	11267.424128658668	116.35518370975
2	4204	11275.571646698521	121.7843117544
2	4210	11289.938738104022	113.51784180484
2	4226	11314.660737800231	123.97201913501
2	4228	11318.131210744818	102.11515394726
2	4237	11331.906764921456	139.15943997038
2	4239	11336.97249631487	42.316097749764
2	4241	11346.541648168571	101.20536950206
2	4254	11375.581241646063	64.93967353816
2	4266	11408.349094192967	156.61759131893
2	4270	11431.491210700448	120.5625618332
2	4282	11463.462182291034	110.40570337331
2	4287	11477.548686023595	125.83898050293
2	4298	11498.104545134052	85.356799607908
2	4300	11507.721505279216	148.87935626128
2	4308	11527.884473862187	120.14008092284
2	4318	11545.095449237721	103.11055737952
2	4334	11594.504290873923	99.90917831552
2	4346	11614.742307354585	96.458079476042
2	4354	11641.716677961001	110.68929425398
2	4356	11644.818566191268	103.1099722314
2	4370	11684.411525134855	142.40510606473
2	4372	11693.992297825641	144.75810310265
2	4386	11713.08567148381	144.82854648822
2	4388	11713.258046788325	136.20323301626
2	4394	11740.735817750634	145.30845042895
2	4412	11789.620901080366	184.91192726695
2	4420	11798.474198231985	167.09113340099
2	4422	11809.573546860215	202.80930297665
2	4426	11816.81777032555	160.49435282049
2	4446	11865.888867502821	107.30119140776
2	4452	11870.398417837229	152.05261828582
2	4456	11884.884729126399	169.7282274251
2	4468	11917.0190684729	233.78242721781
2	4478	11937.52022368558	150.69724955425
2	4480	11947.097685126091	149.02722265573
2	4496	11969.381034210834	157.35166658173
2	4500	11993.793958860613	153.50992125856
2	4510	12000.629355091398	175.8779785804
2	4514	12022.709375762627	150.82382996703
2	4524	12029.259760722311	165.02956712014
2	4538	12066.09648850275	173.65343671189
2	4544	12089.774699646969	130.92142880541
2	4550	12098.847036571273	183.65129334575
2	4552	12103.315826446343	191.51446781857
2	4558	12136.33133719123	174.36418444144
2	4574	12148.656898206696	186.17948548257
2	4578	12167.23710833627	148.88723295743
2	4592	12200.275915548994	175.72257300818
2	4594	12202.5608086684	229.99200851688
2	4604	12225.092061668136	197.93459541436
2	4614	12255.022084606514	183.71332030575
2	4616	12255.062570146793	186.63522373866
2	4622	12271.452154444566	160.76934207583
2	4638	12301.246926590141	156.10938107817
2	4644	12320.069414113221	203.4974682162
2	4646	12323.513124199149	167.86444596646
2	4652	12342.496553092909	165.42981884074
2	4660	12348.822920392556	96.454431816019
2	4672	12388.831804825483	146.580531247
2	4682	12393.83995977004	209.750056946
2	4686	12416.916204934308	157.16064220143
2	4688	12420.950364537541	158.99877067254
2	4698	12458.210570753471	182.11544535019
2	4703	12471.993747228765	148.20134896054
2	4711	12480.084390399313	136.26624100048
2	4730	12505.635476229133	180.52401313621
2	4732	12532.140373156965	182.16566756507
2	4734	12532.620654758689	127.14191645779
2	4756	12582.69585956738	106.8105449499
2	4758	12586.357490515412	88.796555867637
2	4770	12602.356945760472	114.77238889314
2	4778	12622.26932372531	117.7872936099
2	4780	12632.95728664137	132.36967024202
2	4782	12654.013910844726	114.03662397914
2	4797	12694.795165494397	141.82689969941
2	4802	12704.745645856653	152.55312548773
2	4810	12727.079082085324	148.78540780103
2	4815	12752.231219918902	165.20403214355
2	4826	12787.166878247341	177.65752699906
2	4828	12795.267632586239	95.463317078357
2	4833	12831.78436302632	140.45815534111
2	4838	12843.185163222373	138.36479573525
2	4843	12855.145562030999	79.266321591773
2	4866	12977.547187895495	87.167045805696
2	4871	12989.906650278853	69.964378374346
2	4876	12999.584567393906	144.99287863914
2	4881	13035.258616310688	108.54689576175
2	4895	13090.692419004086	132.78016739468
2	4897	13093.572821900364	106.18019396239
2	4902	13124.910998330504	110.45319961073
2	4913	13182.866196213159	117.75645687238
2	4921	13209.564541518441	93.134457333456
2	4942	13272.513837708843	102.64638894505
2	4954	13299.214325368508	106.20565139776
2	4956	13308.19797812203	83.013997866665
2	4958	13310.741497782105	127.36922471597
2	4967	13341.804730384493	111.75485649993
2	4969	13369.434548773768	115.18581203792
2	4977	13409.472199358091	152.9644253929
2	4982	13424.929733665982	125.7871644122
2	4984	13426.535270190917	156.90883245583
2	5010	13548.624746708548	121.28333961072
2	5012	13548.908717525665	101.4843564182
2	5026	13580.973195007944	68.784359140217
2	5034	13605.696626292245	83.957991922149
2	5042	13636.958657690455	89.319440866782
2	5050	13646.641208820125	110.45186456952
2	5058	13664.248117111021	89.47735956477
2	5063	13675.205256007345	122.36709784786
2	5076	13692.604821303278	92.203193696876
2	5082	13709.811877084216	93.574608579655
2	5096	13743.315795884147	100.11819986591
2	5108	13767.909819599415	114.6708088712
2	5114	13783.330323504619	104.60918143717
2	5124	13808.268170406118	128.95678673174
2	5132	13829.601389573341	149.59264745659
2	5134	13841.38713946888	139.84585426316
2	5144	13864.459958053212	165.74017688609
2	5152	13883.461226625626	170.82378008846
2	5166	13900.969115044739	161.36347014535
2	5168	13917.949620770677	169.92873132325
2	5180	13945.355333241049	169.71976601886
2	5182	13952.549752894044	176.34730109656
2	5188	13963.270923986789	136.76008172282
2	5196	13991.323940717824	146.92393564986
2	5214	14025.406206508965	178.75412734393
2	5216	14030.672241888791	154.06034904787
2	5228	14058.723785824861	160.35367760402
2	5230	14059.94466388815	173.67289480218
2	5240	14071.90301142982	93.31608481629
2	5246	14093.377102511451	152.33879071402
2	5248	14110.650257474694	105.71734879687
2	5264	14131.971514485526	96.377885174528
2	5268	14167.055383507107	161.56681215576
2	5270	14174.682943353919	138.19531399084
2	5288	14212.36342763134	169.47905727532
2	5300	14233.755773767596	172.74530295806
2	5306	14246.723899845939	183.56684082245
2	5312	14260.333035489931	136.81549596926
2	5314	14264.844116376044	86.354668135373
2	5316	14266.177849091293	110.5759619869
2	5340	14310.978673742077	103.35617512552
2	5348	14322.593187891289	140.78035986544
2	5350	14328.133968184783	124.9124141307
2	5352	14351.07195671273	124.65968889313
2	5360	14386.242874069428	118.99814296338
2	5372	14407.986628708011	109.27091140805
2	5378	14419.381138094491	150.13727229986
2	5388	14442.097722275723	156.65152087051
2	5406	14470.92898092371	149.31930126112
2	5412	14489.026185984923	115.33553763406
2	5414	14496.951986831513	194.59282844777
2	5426	14523.987707229807	132.53946957528
2	5430	14536.391158480606	109.68175504131
2	5432	14541.479620908794	109.07660842105
2	5446	14582.735060700729	155.93048099533
2	5452	14597.098231942964	147.58617909827
2	5454	14606.564184498289	165.33502268726
2	5462	14633.519918384422	178.45238525972
2	5478	14669.073334434976	168.02363727184
2	5486	14678.630200630338	122.52014098251
2	5494	14700.119713967196	170.0835994313
2	5496	14718.158669676747	146.04290067597
2	5522	14773.762161258145	163.74529977586
2	5524	14779.232395255108	113.52432660863
2	5528	14783.181499872117	117.39909779881
2	5536	14799.513717613106	131.24572278603
2	5558	14848.710154369517	177.07755642327
2	5568	14873.249352485048	190.97980403495
2	5574	14879.053996016035	153.59360656926
2	5576	14886.91953703095	157.59223311873
2	5598	14927.456660547923	142.77356076636
2	5602	14945.071400910127	177.22859791521
2	5604	14948.40734767759	186.06970528188
2	5606	14953.914609090171	172.93344272245
2	5628	14985.1614748842	198.15481976012
2	5636	15005.414784101237	200.53196634328
2	5638	15008.315479783425	211.19590413871
2	5644	15028.241730294237	211.28553378068
2	5656	15062.677281208169	227.14041702787
2	5658	15067.687447060082	197.20665412096
2	5660	15074.120513505912	246.04109484188
2	5668	15099.599171613833	228.95935769177
2	5684	15123.75731546478	247.6820476499
2	5688	15129.017578207122	252.14525257634
2	5694	15143.704755632882	238.12891246344
2	5696	15159.24952978062	237.63338330887
2	5712	15202.136851425059	261.36891702916
2	5714	15204.603893620944	249.37993589363
2	5718	15214.239819456724	250.30536460718
2	5738	15257.183880756689	289.59440511366
2	5740	15262.307366682099	274.14126041156
2	5742	15269.737438216628	305.5027407695
2	5744	15271.299980035996	239.50322869804
2	5758	15311.110722948105	211.15883198518
2	5762	15323.242322874862	235.96477876355
2	5779	15365.561901617095	203.88580967927
2	5781	15369.732472462198	245.27477633373
2	5783	15378.587265784567	136.74261557272
2	5788	15396.558802762905	185.83568776377
2	5802	15441.750140346236	159.2410024174
2	5804	15453.807424108635	154.82765869381
2	5820	15496.392399799093	185.21447487416
2	5822	15504.755848054945	124.60938110845
2	5834	15544.232054195314	141.0776137436
2	5836	15546.990281488395	124.32731996768
2	5838	15553.327560690011	95.208021730732
2	5852	15594.177865458772	135.79021507909
2	5862	15625.914695573852	147.82090269741
2	5871	15654.796801756174	82.433197179005
2	5882	15680.063615046079	105.5642410223
2	5884	15683.246497033516	114.79471843657
2	5886	15701.808632805597	81.534320836675
2	5900	15757.234935125909	144.14279761734
2	5905	15785.551172126384	114.47861128487
2	5916	15818.053731574079	99.022858647711
2	5924	15851.327551112549	99.127646989121
2	5938	15875.404937793697	99.539704537842
2	5950	15901.7632122284	111.548467075
2	5964	15931.804029152839	122.77318530532
2	5978	15956.91912343494	89.880498044095
2	5990	15988.472446691541	123.39167941493
2	5994	15997.968245106709	144.64972499647
2	5996	15998.477768576252	121.17630217659
2	6018	16037.25689707642	121.87029377782
2	6020	16040.039232176673	137.75969410333
2	6022	16044.17059028023	152.39068790545
2	6028	16059.045325406147	165.57486917475
2	6034	16089.153251240742	159.92250858496
2	6054	16123.123338244414	206.01694023545
2	6056	16131.503823577781	197.14571476006
2	6058	16131.894440065888	162.24112943588
2	6062	16132.377888744264	185.91099913019
2	6086	16201.101476326897	227.12991530323
2	6092	16213.880849843055	231.70053578502
2	6094	16216.847128020588	212.88832086393
2	6096	16225.016985162098	232.17746956294
2	6116	16279.015510330863	260.25929347922
2	6118	16279.798191522334	200.35235415896
2	6122	16294.75278232889	202.09118533562
2	6124	16299.829106149362	217.34564249065
2	6144	16341.738000145288	182.89937309107
2	6146	16344.602443605809	212.23405107289
2	6152	16359.597928199916	167.34335186801
2	6154	16359.742044081367	226.23361425029
2	6176	16410.259762011331	147.19155414556
2	6178	16421.24972027235	209.43826118972
2	6186	16436.432039013883	231.92690354767
2	6188	16458.902336882042	166.09959210174
2	6204	16475.924458254896	157.97103870356
2	6206	16477.783182639032	177.42150982549
2	6212	16503.391238980693	135.9755100688
2	6214	16526.112359586395	206.94676227706
2	6238	16558.080303641377	175.25794372587
2	6240	16569.599114060468	163.95689931834
2	6242	16574.198134440908	145.68357960647
2	6246	16596.864265661869	192.09042505903
2	6261	16616.518186727865	68.039933653161
2	6272	16636.735117337186	82.633039478178
2	6274	16646.960340476889	117.26784545548
2	6276	16656.078942552639	192.82008774126
2	6302	16718.949460504085	139.79113390207
2	6304	16728.329961947005	99.670782663997
2	6306	16733.193162412672	118.74405252075
2	6308	16753.673954374939	134.07486010125
2	6316	16768.604502273198	109.58213467938
2	6321	16799.56453130649	128.64054338784
2	6329	16839.512245021156	125.16909901441
2	6331	16844.204840511089	162.60005227348
2	6339	16894.195503295829	123.09853188314
2	6356	16964.048576608065	114.33250867853
2	6361	16977.545624968647	70.972031724078
2	6382	17047.177519920338	100.30041906263
2	6390	17060.912393905178	105.65740547471
2	6396	17083.483544765581	113.70013715632
2	6416	17129.577479433026	113.6601717581
2	6418	17136.010754602687	116.15569362669
2	6420	17141.806029850828	111.24727491187
2	6424	17148.161143526344	114.37649739291
2	6442	17192.359113911015	145.49179145664
2	6458	17221.173520752356	143.37479836054
2	6468	17234.145621996995	165.17612245205
2	6470	17242.436288118242	194.1156428589
2	6472	17255.018539824024	164.29133984304
2	6474	17256.465213366049	111.42443168412
2	6486	17291.366671468353	135.19479722626
2	6492	17299.006974611571	136.5908748881
2	6500	17326.392108645015	163.1760093747
2	6508	17339.6391061054	163.07559440472
2	6514	17351.388774431385	159.13443179131
2	6518	17376.638984731851	199.56436090803
2	6530	17395.64283475417	117.63564173306
2	6538	17423.929598934879	225.33852255914
2	6548	17444.254826191791	131.80630742893
2	6560	17466.632848932794	133.54782831583
2	6565	17495.701392781735	115.59002852589
2	6567	17503.579284504103	105.04468390166
2	6572	17528.687633579349	162.89441896952
2	6577	17536.907117760396	106.81401913785
2	6596	17580.758439247417	118.30096136137
2	6598	17581.113029477784	144.23830747822
2	6618	17618.277476769593	82.222060400847
2	6624	17630.685607115722	91.701834791134
2	6628	17637.035200938955	92.134072958419
2	6644	17670.255978758044	128.82993510622
2	6654	17682.342630631752	91.231129401074
2	6656	17685.482152033536	91.261501047215
2	6658	17689.427914873194	127.73268022844
2	6672	17735.50622068627	134.39073602466
2	6686	17757.450178722922	123.65772937031
2	6688	17766.959510383642	129.3911999967
2	6692	17776.789312853791	128.64737763783
2	6696	17779.284160042356	134.07588613621
2	6712	17816.004867389695	144.27377513349
2	6726	17838.180249394703	163.35689930136
2	6728	17851.72150570422	159.78528856051
2	6732	17865.783344994852	165.27118190123
2	6752	17899.542800193453	115.59866652713
2	6756	17907.946025993021	138.4606791932
2	6762	17912.709377587698	123.25448563447
2	6766	17934.855329107259	156.55820451579
2	6780	17971.097726464717	136.73711755894
2	6786	17982.166524982564	158.93253928575
2	6790	18001.603410352229	194.64851840499
2	6797	18021.812195042772	169.74912555935
2	6809	18049.1626128883	163.00452658611
2	6811	18067.113810481892	185.02755084954
2	6816	18077.359828528807	176.98478113475
2	6818	18079.198860083445	200.19845251901
2	6823	18101.346395433537	172.85904011136
2	6825	18145.806656155956	148.62923600069

