version 2
run General-0-20190503-18:42:39-3144
attr configname General
attr datetime 20190503-18:42:39
attr experiment General
attr inifile omnetpp.ini
attr iterationvars ""
attr iterationvarsf ""
attr measurement ""
attr network ParkNetworkAlt
attr processid 3144
attr repetition 0
attr replication #0
attr resultdir results
attr runnumber 0
attr seedset 0
param **.Source.interArrivalTime exponential(20s)
param **.TicketBooth1.serviceTime "truncnormal(75s, 15s)"
param **.TicketBooth2.serviceTime "truncnormal(75s, 15s)"
param **.Security1.serviceTime "truncnormal(30s, 10s)"
param **.Security2.serviceTime "truncnormal(30s, 10s)"
param **.WalkingDelay.serviceTime 20s
param **.Ride1.serviceTime 60s
param **.Ride2.serviceTime 60s
param **.Ride3.serviceTime 60s
param **.Ride4.serviceTime 60s
param **.Ride5.serviceTime 60s
param **.Source.numJobs 1500
param **.Source.jobName default
param **.Source.jobType default
param **.Source.jobPriority default
param **.Source.startTime 0
param **.Source.stopTime 18000s
param **.TicketBooth1.fetchingAlgorithm default
param **.TicketBooth2.fetchingAlgorithm default
param **.SecurityQ1.capacity default
param **.SecurityQ1.fifo true
param **.SecurityQ2.capacity default
param **.SecurityQ2.fifo true
param **.Security1.fetchingAlgorithm default
param **.Security2.fetchingAlgorithm default
param **.RideQ1.capacity default
param **.RideQ1.fifo true
param **.RideQ2.capacity default
param **.RideQ2.fifo true
param **.RideQ3.capacity default
param **.RideQ3.fifo true
param **.RideQ4.capacity default
param **.RideQ4.fifo true
param **.RideQ5.capacity default
param **.RideQ5.fifo true
param **.TicketQueue.capacity default
param **.TicketQueue.fifo true
param **.TicketQueue.sendingAlgorithm default
param **.WalkingDelay.capacity default
param **.WalkingDelay.fifo true
param **.RideSelect.routingAlgorithm default
param **.RideSelect.randomGateIndex default
param **.Ride1.capacity 10
param **.Ride1.fifo true
param **.Ride1.sendingAlgorithm default
param **.Ride2.capacity 10
param **.Ride2.fifo true
param **.Ride2.sendingAlgorithm default
param **.Ride3.capacity 10
param **.Ride3.fifo true
param **.Ride3.sendingAlgorithm default
param **.Ride4.capacity 10
param **.Ride4.fifo true
param **.Ride4.sendingAlgorithm default
param **.Ride5.capacity 10
param **.Ride5.fifo true
param **.Ride5.sendingAlgorithm default
param **.Router.routingAlgorithm default
param **.Router.randomGateIndex default
param **.Sink.keepJobs false
param **.RideQ1.serviceTime 0s
param **.RideQ2.serviceTime 0s
param **.RideQ3.serviceTime 0s
param **.RideQ4.serviceTime 0s
param **.RideQ5.serviceTime 0s

vector 0 ParkNetworkAlt.RideQ1 queueLength:vector ETV
attr interpolationmode sample-hold
attr title "queue length, vector"
vector 1 ParkNetworkAlt.RideQ2 queueLength:vector ETV
attr interpolationmode sample-hold
attr title "queue length, vector"
vector 2 ParkNetworkAlt.RideQ3 queueLength:vector ETV
attr interpolationmode sample-hold
attr title "queue length, vector"
vector 3 ParkNetworkAlt.RideQ4 queueLength:vector ETV
attr interpolationmode sample-hold
attr title "queue length, vector"
vector 4 ParkNetworkAlt.RideQ5 queueLength:vector ETV
attr interpolationmode sample-hold
attr title "queue length, vector"
vector 5 ParkNetworkAlt.TicketQueue queueLength:vector ETV
attr interpolationmode sample-hold
attr title "queue length, vector"
vector 6 ParkNetworkAlt.WalkingDelay queueLength:vector ETV
attr interpolationmode sample-hold
attr title "queue length, vector"
vector 7 ParkNetworkAlt.Ride1 queueLength:vector ETV
attr interpolationmode sample-hold
attr title "queue length, vector"
vector 8 ParkNetworkAlt.Ride2 queueLength:vector ETV
attr interpolationmode sample-hold
attr title "queue length, vector"
vector 9 ParkNetworkAlt.Ride3 queueLength:vector ETV
attr interpolationmode sample-hold
attr title "queue length, vector"
vector 10 ParkNetworkAlt.Ride4 queueLength:vector ETV
attr interpolationmode sample-hold
attr title "queue length, vector"
vector 11 ParkNetworkAlt.Ride5 queueLength:vector ETV
attr interpolationmode sample-hold
attr title "queue length, vector"
vector 12 ParkNetworkAlt.SecurityQ1 queueLength:vector ETV
attr interpolationmode sample-hold
attr title "queue length, vector"
vector 13 ParkNetworkAlt.SecurityQ2 queueLength:vector ETV
attr interpolationmode sample-hold
attr title "queue length, vector"
vector 14 ParkNetworkAlt.Sink lifeTime:vector ETV
attr interpolationmode none
attr title "lifetime of arrived jobs, vector"
attr unit s
0	0	0	0
0	199	420	1
0	200	420	0
0	319	600	1
0	322	600	0
0	323	600	1
0	326	600	0
0	604	960	1
0	607	960	0
0	656	1020	1
0	660	1020	0
0	889	1320	1
0	891	1320	2
0	892	1320	1
0	895	1320	0
0	1024	1500	1
0	1027	1500	2
0	1028	1500	1
0	1032	1500	0
0	1277	1800	1
0	1278	1800	0
0	1321	1860	1
0	1322	1860	0
0	2125	2820	1
0	2127	2820	0
0	2892	3780	1
0	2893	3780	2
0	2894	3780	1
0	2897	3780	0
0	3032	3960	1
0	3033	3960	2
0	3036	3960	1
0	3038	3960	0
0	3926	5040	1
0	3930	5040	0
0	4022	5160	1
0	4024	5160	0
0	4227	5400	1
0	4229	5400	0
0	4616	5880	1
0	4619	5880	0
0	5128	6540	1
0	5130	6540	0
0	5131	6540	1
0	5134	6540	0
0	5172	6600	1
0	5174	6600	0
0	5553	7080	1
0	5555	7080	0
0	5591	7140	1
0	5592	7140	0
0	5806	7380	1
0	5807	7380	0
0	5849	7440	1
0	5851	7440	2
0	5853	7440	1
0	5857	7440	0
0	6148	7800	1
0	6151	7800	0
0	6532	8280	1
0	6533	8280	0
0	6713	8520	1
0	6714	8520	0
0	6748	8580	1
0	6749	8580	0
0	7066	8940	1
0	7069	8940	0
0	7157	9060	1
0	7160	9060	0
0	7245	9180	1
0	7249	9180	0
0	7387	9360	1
0	7389	9360	0
0	7695	9720	1
0	7697	9720	0
0	7779	9840	1
0	7783	9840	0
0	7829	9900	1
0	7830	9900	0
0	7968	10080	1
0	7971	10080	0
0	8777	11100	1
0	8779	11100	0
0	9406	11880	1
0	9407	11880	2
0	9409	11880	1
0	9413	11880	0
0	9520	12000	1
0	9524	12000	0
0	9785	12360	1
0	9788	12360	0
0	9789	12360	1
0	9792	12360	0
0	9927	12540	1
0	9928	12540	0
0	10167	12840	1
0	10168	12840	0
0	10354	13080	1
0	10357	13080	2
0	10358	13080	1
0	10361	13080	0
0	10492	13260	1
0	10495	13260	0
0	11816	14940	1
0	11818	14940	0
0	12228	15480	1
0	12230	15480	0
0	12931	16380	1
0	12933	16380	0
0	13210	16740	1
0	13213	16740	0
0	13586	17220	1
0	13588	17220	0
0	13914	17640	1
0	13917	17640	0
0	13956	17700	1
0	13957	17700	2
0	13959	17700	1
0	13963	17700	0
0	14003	17760	1
0	14007	17760	0
0	14106	17880	1
0	14109	17880	0
0	14372	18240	1
0	14373	18240	0
0	14374	18240	1
0	14377	18240	0
0	14460	18360	1
0	14462	18360	0
0	14798	18840	1
0	14799	18840	0
0	15095	19260	1
0	15098	19260	0
0	15304	19560	1
0	15307	19560	0
0	15308	19560	1
0	15312	19560	0
0	15349	19620	1
0	15351	19620	0
0	15384	19680	1
0	15388	19680	0
0	16018	20580	1
0	16020	20580	0
0	16378	21120	1
0	16380	21120	0
0	16662	21540	1
0	16665	21540	0
0	16707	21600	1
0	16711	21600	0
0	16968	21960	1
0	16970	21960	0
0	17006	22020	1
0	17009	22020	0
0	17159	22260	1
0	17162	22260	0
0	17428	22620	1
0	17432	22620	0
0	17881	23280	1
0	17882	23280	2
0	17885	23280	1
0	17889	23280	0
0	18256	23820	1
0	18258	23820	2
0	18260	23820	1
0	18264	23820	0
0	18378	24000	1
0	18382	24000	0
0	18412	24060	1
0	18413	24060	2
0	18415	24060	1
0	18419	24060	0
0	18463	24120	1
0	18466	24120	0
0	18580	24300	1
0	18582	24300	0
0	19048	24960	1
0	19051	24960	0
0	19288	25320	1
0	19292	25320	0
0	19712	25920	1
0	19714	25920	0
0	19871	26160	1
0	19874	26160	0
0	19909	26220	1
0	19912	26220	2
0	19913	26220	1
0	19916	26220	0
0	20096	26460	1
0	20099	26460	0
0	20171	26580	1
0	20175	26580	0
0	20345	26820	1
0	20349	26820	0
0	20352	26820	1
0	20354	26820	0
0	20554	27120	1
0	20558	27120	0
0	20588	27180	1
0	20590	27180	2
0	20592	27180	1
0	20595	27180	0
0	20640	27240	1
0	20641	27240	2
0	20643	27240	1
0	20647	27240	0
0	20766	27420	1
0	20769	27420	0
0	21221	28080	1
0	21224	28080	2
0	21225	28080	1
0	21228	28080	0
0	21263	28140	1
0	21265	28140	2
0	21267	28140	1
0	21271	28140	0
0	21315	28200	1
0	21316	28200	0
0	21398	28320	1
0	21400	28320	0
0	21432	28380	1
0	21434	28380	2
0	21436	28380	1
0	21438	28380	0
0	22248	29520	1
0	22249	29520	2
0	22252	29520	1
0	22256	29520	0
0	22461	29820	1
0	22463	29820	0
0	22537	29940	1
0	22538	29940	2
0	22539	29940	1
0	22543	29940	0
0	22787	30300	1
0	22788	30300	2
0	22789	30300	1
0	22792	30300	0
0	23032	30660	1
0	23033	30660	2
0	23035	30660	1
0	23039	30660	0
0	23072	30720	1
0	23075	30720	0
0	23118	30780	1
0	23121	30780	0
0	23626	31500	1
0	23628	31500	0
0	24013	32040	1
0	24015	32040	2
0	24017	32040	1
0	24021	32040	0
0	24703	33060	1
0	24707	33060	0
0	24743	33120	1
0	24744	33120	0
0	24834	33240	1
0	24838	33240	0
0	24999	33480	1
0	25001	33480	2
0	25003	33480	1
0	25004	33480	2
0	25006	33480	1
0	25008	33480	0
0	25043	33540	1
0	25047	33540	0
0	25048	33540	1
0	25051	33540	0
0	25093	33600	1
0	25096	33600	0
0	25381	34020	1
0	25384	34020	0
0	25425	34080	1
0	25427	34080	0
0	25808	34860	1
0	25811	34860	2
0	25812	34860	1
0	25816	34860	0
0	26005	35340	1
0	26008	35340	0
0	26223	35940	1
0	26224	35940	2
0	26226	35940	1
0	26229	35940	0
0	26288	36120	1
0	26289	36120	0
0	26306	36180	1
0	26308	36180	2
0	26310	36180	1
0	26314	36180	0
0	26501	36780	1
0	26503	36780	0
0	26612	37140	1
0	26616	37140	0
0	26618	37140	1
0	26621	37140	0
1	0	0	0
1	800	1200	1
1	803	1200	0
1	839	1260	1
1	842	1260	0
1	1838	2460	1
1	1842	2460	0
1	2227	2940	1
1	2229	2940	0
1	2360	3120	1
1	2361	3120	2
1	2362	3120	1
1	2366	3120	0
1	2407	3180	1
1	2409	3180	0
1	2451	3240	1
1	2453	3240	0
1	2498	3300	1
1	2501	3300	0
1	2586	3420	1
1	2590	3420	0
1	2809	3660	1
1	2810	3660	0
1	3135	4080	1
1	3136	4080	0
1	3349	4320	1
1	3352	4320	0
1	3402	4380	1
1	3404	4380	0
1	3726	4800	1
1	3727	4800	0
1	4456	5700	1
1	4460	5700	0
1	4510	5760	1
1	4511	5760	2
1	4514	5760	1
1	4518	5760	0
1	4562	5820	1
1	4564	5820	2
1	4566	5820	1
1	4570	5820	0
1	4701	6000	1
1	4703	6000	0
1	4934	6300	1
1	4938	6300	0
1	4985	6360	1
1	4987	6360	0
1	5075	6480	1
1	5079	6480	0
1	5653	7200	1
1	5654	7200	2
1	5657	7200	1
1	5661	7200	0
1	5889	7500	1
1	5893	7500	0
1	6098	7740	1
1	6100	7740	0
1	6193	7860	1
1	6194	7860	0
1	6431	8160	1
1	6433	8160	2
1	6434	8160	1
1	6438	8160	0
1	6482	8220	1
1	6483	8220	2
1	6485	8220	3
1	6486	8220	2
1	6489	8220	1
1	6492	8220	0
1	6609	8400	1
1	6613	8400	0
1	7009	8880	1
1	7012	8880	0
1	8409	10620	1
1	8411	10620	0
1	8413	10620	1
1	8415	10620	0
1	8921	11280	1
1	8924	11280	0
1	8975	11340	1
1	8979	11340	0
1	9115	11520	1
1	9116	11520	0
1	9149	11580	1
1	9151	11580	2
1	9152	11580	1
1	9156	11580	0
1	9252	11700	1
1	9253	11700	2
1	9256	11700	1
1	9259	11700	0
1	9455	11940	1
1	9459	11940	0
1	9521	12000	1
1	9522	12000	0
1	9871	12480	1
1	9875	12480	0
1	9971	12600	1
1	9974	12600	0
1	10020	12660	1
1	10023	12660	0
1	10114	12780	1
1	10118	12780	0
1	10270	12960	1
1	10272	12960	0
1	10542	13320	1
1	10544	13320	0
1	10730	13560	1
1	10733	13560	0
1	11117	14040	1
1	11119	14040	0
1	11403	14400	1
1	11405	14400	0
1	12135	15360	1
1	12136	15360	0
1	12473	15780	1
1	12477	15780	0
1	12520	15840	1
1	12523	15840	0
1	12624	15960	1
1	12625	15960	0
1	12753	16140	1
1	12754	16140	0
1	12880	16320	1
1	12881	16320	2
1	12884	16320	1
1	12887	16320	0
1	13113	16620	1
1	13115	16620	0
1	13676	17340	1
1	13678	17340	0
1	14104	17880	1
1	14107	17880	0
1	14247	18060	1
1	14248	18060	0
1	14674	18660	1
1	14675	18660	0
1	14711	18720	1
1	14713	18720	0
1	15259	19500	1
1	15261	19500	2
1	15263	19500	1
1	15267	19500	0
1	15346	19620	1
1	15350	19620	0
1	15387	19680	1
1	15389	19680	0
1	16182	20820	1
1	16183	20820	2
1	16185	20820	1
1	16189	20820	0
1	16342	21060	1
1	16344	21060	0
1	16751	21660	1
1	16752	21660	2
1	16753	21660	3
1	16755	21660	2
1	16758	21660	1
1	16761	21660	0
1	16844	21780	1
1	16845	21780	0
1	17810	23160	1
1	17812	23160	0
1	18383	24000	1
1	18384	24000	0
1	18664	24420	1
1	18666	24420	0
1	18706	24480	1
1	18709	24480	0
1	19089	25020	1
1	19091	25020	0
1	19252	25260	1
1	19254	25260	0
1	19412	25500	1
1	19415	25500	0
1	19500	25620	1
1	19502	25620	0
1	19869	26160	1
1	19872	26160	2
1	19873	26160	1
1	19876	26160	0
1	20306	26760	1
1	20307	26760	0
1	20395	26880	1
1	20398	26880	0
1	20893	27600	1
1	20894	27600	2
1	20896	27600	1
1	20899	27600	0
1	21484	28440	1
1	21487	28440	0
1	21698	28740	1
1	21700	28740	0
1	21830	28920	1
1	21831	28920	2
1	21832	28920	1
1	21833	28920	2
1	21836	28920	1
1	21839	28920	0
1	22422	29760	1
1	22425	29760	0
1	22615	30060	1
1	22617	30060	0
1	22657	30120	1
1	22660	30120	0
1	22697	30180	1
1	22699	30180	0
1	23205	30900	1
1	23208	30900	2
1	23209	30900	1
1	23213	30900	0
1	24063	32100	1
1	24065	32100	0
1	24149	32220	1
1	24150	32220	0
1	24578	32880	1
1	24582	32880	0
1	24706	33060	1
1	24708	33060	0
1	24957	33420	1
1	24961	33420	0
1	24962	33420	1
1	24966	33420	0
1	25684	34560	1
1	25687	34560	0
1	25734	34680	1
1	25736	34680	0
1	25834	34920	1
1	25835	34920	0
1	25955	35220	1
1	25958	35220	0
1	26129	35700	1
1	26130	35700	0
1	26352	36300	1
1	26356	36300	0
1	26429	36540	1
1	26430	36540	2
1	26432	36540	1
1	26435	36540	0
1	26952	38460	1
1	26953	38460	0
2	0	0	0
2	456	780	1
2	458	780	0
2	704	1080	1
2	708	1080	0
2	1213	1740	1
2	1214	1740	0
2	1319	1860	1
2	1323	1860	0
2	1630	2220	1
2	1633	2220	0
2	1739	2340	1
2	1741	2340	0
2	1933	2580	1
2	1935	2580	0
2	2172	2880	1
2	2175	2880	0
2	2551	3360	1
2	2552	3360	0
2	2640	3480	1
2	2642	3480	0
2	2937	3840	1
2	2938	3840	2
2	2940	3840	1
2	2943	3840	0
2	3229	4200	1
2	3233	4200	0
2	3445	4440	1
2	3447	4440	0
2	3879	4980	1
2	3882	4980	0
2	4223	5400	1
2	4226	5400	0
2	4272	5460	1
2	4275	5460	0
2	5419	6900	1
2	5421	6900	0
2	5461	6960	1
2	5464	6960	0
2	5506	7020	1
2	5507	7020	2
2	5510	7020	1
2	5514	7020	0
2	5755	7320	1
2	5756	7320	0
2	6670	8460	1
2	6671	8460	2
2	6673	8460	1
2	6676	8460	0
2	6909	8760	1
2	6911	8760	0
2	7155	9060	1
2	7158	9060	0
2	7246	9180	1
2	7248	9180	0
2	7485	9480	1
2	7489	9480	0
2	7728	9780	1
2	7731	9780	0
2	8227	10380	1
2	8229	10380	0
2	8455	10680	1
2	8457	10680	0
2	8591	10860	1
2	8593	10860	2
2	8594	10860	1
2	8597	10860	0
2	9074	11460	1
2	9076	11460	0
2	9255	11700	1
2	9257	11700	0
2	9363	11820	1
2	9366	11820	0
2	10731	13560	1
2	10734	13560	0
2	10916	13800	1
2	10919	13800	0
2	11159	14100	1
2	11163	14100	0
2	11210	14160	1
2	11214	14160	0
2	11353	14340	1
2	11356	14340	0
2	11496	14520	1
2	11499	14520	0
2	11539	14580	1
2	11541	14580	0
2	11688	14760	1
2	11690	14760	0
2	11862	15000	1
2	11865	15000	0
2	11910	15060	1
2	11911	15060	0
2	11956	15120	1
2	11958	15120	0
2	12134	15360	1
2	12137	15360	0
2	12340	15600	1
2	12341	15600	2
2	12344	15600	1
2	12345	15600	2
2	12347	15600	1
2	12349	15600	0
2	12387	15660	1
2	12390	15660	0
2	13356	16920	1
2	13360	16920	0
2	13404	16980	1
2	13406	16980	2
2	13408	16980	1
2	13412	16980	0
2	13719	17400	1
2	13721	17400	0
2	14059	17820	1
2	14060	17820	0
2	14062	17820	1
2	14065	17820	0
2	14164	17940	1
2	14167	17940	0
2	14418	18300	1
2	14419	18300	0
2	14507	18420	1
2	14510	18420	0
2	14627	18600	1
2	14629	18600	2
2	14630	18600	1
2	14633	18600	0
2	15014	19140	1
2	15018	19140	0
2	15720	20160	1
2	15723	20160	0
2	15864	20340	1
2	15868	20340	0
2	16093	20700	1
2	16096	20700	0
2	16137	20760	1
2	16139	20760	0
2	16270	20940	1
2	16271	20940	2
2	16272	20940	1
2	16275	20940	0
2	16498	21300	1
2	16502	21300	0
2	16543	21360	1
2	16547	21360	0
2	16793	21720	1
2	16797	21720	0
2	17389	22560	1
2	17391	22560	0
2	17551	22800	1
2	17554	22800	0
2	17676	22980	1
2	17679	22980	0
2	17716	23040	1
2	17720	23040	0
2	17848	23220	1
2	17852	23220	0
2	18056	23520	1
2	18057	23520	0
2	18257	23820	1
2	18259	23820	0
2	18962	24840	1
2	18965	24840	2
2	18966	24840	1
2	18970	24840	0
2	19006	24900	1
2	19007	24900	2
2	19008	24900	1
2	19012	24900	0
2	19049	24960	1
2	19052	24960	0
2	19087	25020	1
2	19090	25020	0
2	19540	25680	1
2	19544	25680	0
2	19786	26040	1
2	19790	26040	0
2	20176	26580	1
2	20177	26580	0
2	20432	26940	1
2	20435	26940	2
2	20436	26940	1
2	20440	26940	0
2	20467	27000	1
2	20469	27000	0
2	20470	27000	1
2	20474	27000	0
2	20725	27360	1
2	20726	27360	2
2	20727	27360	3
2	20729	27360	2
2	20732	27360	1
2	20734	27360	0
2	21054	27840	1
2	21057	27840	0
2	21396	28320	1
2	21399	28320	0
2	21525	28500	1
2	21527	28500	0
2	21649	28680	1
2	21652	28680	0
2	22087	29280	1
2	22088	29280	2
2	22091	29280	1
2	22094	29280	0
2	22165	29400	1
2	22169	29400	0
2	22829	30360	1
2	22832	30360	0
2	22865	30420	1
2	22867	30420	2
2	22868	30420	3
2	22869	30420	2
2	22872	30420	1
2	22875	30420	0
2	22915	30480	1
2	22917	30480	0
2	22953	30540	1
2	22954	30540	0
2	22956	30540	1
2	22958	30540	0
2	23166	30840	1
2	23168	30840	0
2	23335	31080	1
2	23338	31080	0
2	23461	31260	1
2	23465	31260	0
2	23588	31440	1
2	23591	31440	0
2	23677	31560	1
2	23681	31560	0
2	23881	31860	1
2	23883	31860	0
2	23928	31920	1
2	23932	31920	0
2	24311	32460	1
2	24313	32460	0
2	24745	33120	1
2	24747	33120	0
2	24916	33360	1
2	24917	33360	2
2	24918	33360	3
2	24919	33360	2
2	24922	33360	1
2	24925	33360	0
2	24958	33420	1
2	24960	33420	0
2	25127	33660	1
2	25131	33660	0
2	25247	33840	1
2	25249	33840	0
2	25461	34140	1
2	25462	34140	0
2	25506	34200	1
2	25508	34200	0
2	25635	34440	1
2	25639	34440	0
2	25706	34620	1
2	25710	34620	0
2	25779	34800	1
2	25783	34800	0
2	25886	35040	1
2	25888	35040	0
2	25908	35100	1
2	25911	35100	0
2	26007	35340	1
2	26009	35340	0
2	26032	35400	1
2	26033	35400	2
2	26035	35400	1
2	26038	35400	0
2	26198	35880	1
2	26202	35880	0
2	26244	36000	1
2	26247	36000	0
2	26710	37440	1
2	26712	37440	0
3	0	0	0
3	548	900	1
3	550	900	0
3	978	1440	1
3	980	1440	0
3	1108	1620	1
3	1110	1620	0
3	1420	1980	1
3	1422	1980	0
3	1423	1980	1
3	1427	1980	0
3	1525	2100	1
3	1529	2100	0
3	2025	2700	1
3	2026	2700	0
3	2029	2700	1
3	2031	2700	0
3	2170	2880	1
3	2173	2880	0
3	2854	3720	1
3	2857	3720	0
3	2989	3900	1
3	2990	3900	0
3	2991	3900	1
3	2994	3900	0
3	3287	4260	1
3	3289	4260	2
3	3291	4260	1
3	3295	4260	0
3	3446	4440	1
3	3448	4440	0
3	3528	4560	1
3	3529	4560	0
3	3531	4560	1
3	3534	4560	0
3	3587	4620	1
3	3590	4620	0
3	3824	4920	1
3	3827	4920	0
3	3828	4920	1
3	3832	4920	0
3	3971	5100	1
3	3974	5100	0
3	4069	5220	1
3	4071	5220	2
3	4073	5220	1
3	4077	5220	0
3	4322	5520	1
3	4325	5520	2
3	4326	5520	1
3	4328	5520	2
3	4330	5520	1
3	4333	5520	0
3	4937	6300	1
3	4939	6300	0
3	5459	6960	1
3	5462	6960	2
3	5463	6960	1
3	5466	6960	0
3	6099	7740	1
3	6102	7740	0
3	6231	7920	1
3	6235	7920	0
3	6337	8040	1
3	6341	8040	0
3	6672	8460	1
3	6674	8460	0
3	6711	8520	1
3	6712	8520	2
3	6715	8520	1
3	6719	8520	0
3	6806	8640	1
3	6809	8640	2
3	6810	8640	1
3	6814	8640	0
3	6847	8700	1
3	6850	8700	2
3	6851	8700	1
3	6855	8700	0
3	7124	9000	1
3	7126	9000	0
3	7546	9540	1
3	7550	9540	0
3	7592	9600	1
3	7595	9600	0
3	7879	9960	1
3	7883	9960	0
3	8121	10260	1
3	8123	10260	0
3	8230	10380	1
3	8231	10380	0
3	8319	10500	1
3	8323	10500	0
3	8542	10800	1
3	8543	10800	0
3	8688	10980	1
3	8691	10980	0
3	8734	11040	1
3	8738	11040	0
3	8876	11220	1
3	8878	11220	0
3	9019	11400	1
3	9020	11400	0
3	9204	11640	1
3	9206	11640	2
3	9207	11640	1
3	9211	11640	0
3	9303	11760	1
3	9304	11760	2
3	9306	11760	1
3	9310	11760	0
3	9657	12180	1
3	9660	12180	0
3	9696	12240	1
3	9697	12240	0
3	10019	12660	1
3	10021	12660	0
3	10166	12840	1
3	10169	12840	0
3	10308	13020	1
3	10309	13020	2
3	10310	13020	3
3	10312	13020	2
3	10315	13020	1
3	10317	13020	0
3	10635	13440	1
3	10638	13440	2
3	10639	13440	1
3	10642	13440	0
3	10819	13680	1
3	10822	13680	0
3	10914	13800	1
3	10918	13800	0
3	11027	13920	1
3	11030	13920	0
3	11114	14040	1
3	11116	14040	2
3	11118	14040	1
3	11121	14040	0
3	11215	14160	1
3	11216	14160	0
3	11257	14220	1
3	11258	14220	2
3	11259	14220	3
3	11260	14220	2
3	11263	14220	1
3	11266	14220	0
3	11355	14340	1
3	11357	14340	0
3	11955	15120	1
3	11957	15120	0
3	11959	15120	1
3	11961	15120	0
3	12576	15900	1
3	12580	15900	0
3	12708	16080	1
3	12711	16080	0
3	12789	16200	1
3	12790	16200	2
3	12792	16200	1
3	12795	16200	0
3	13252	16800	1
3	13254	16800	0
3	13532	17160	1
3	13534	17160	2
3	13535	17160	1
3	13537	17160	2
3	13539	17160	1
3	13542	17160	0
3	13758	17460	1
3	13759	17460	2
3	13762	17460	1
3	13765	17460	0
3	14291	18120	1
3	14292	18120	2
3	14294	18120	1
3	14297	18120	0
3	15054	19200	1
3	15057	19200	0
3	15718	20160	1
3	15722	20160	0
3	16424	21180	1
3	16426	21180	0
3	16916	21900	1
3	16920	21900	0
3	17123	22200	1
3	17126	22200	0
3	17249	22380	1
3	17252	22380	0
3	17293	22440	1
3	17294	22440	2
3	17295	22440	1
3	17298	22440	0
3	17466	22680	1
3	17468	22680	2
3	17469	22680	1
3	17473	22680	0
3	17549	22800	1
3	17552	22800	0
3	17718	23040	1
3	17719	23040	0
3	17965	23400	1
3	17968	23400	0
3	18297	23880	1
3	18298	23880	0
3	18541	24240	1
3	18542	24240	0
3	18744	24540	1
3	18746	24540	0
3	18826	24660	1
3	18828	24660	2
3	18829	24660	1
3	18833	24660	0
3	19132	25080	1
3	19136	25080	0
3	19570	25740	1
3	19571	25740	2
3	19573	25740	1
3	19577	25740	0
3	20130	26520	1
3	20132	26520	0
3	20218	26640	1
3	20219	26640	0
3	20516	27060	1
3	20518	27060	0
3	20800	27480	1
3	20804	27480	0
3	21132	27960	1
3	21135	27960	0
3	21789	28860	1
3	21791	28860	0
3	21871	28980	1
3	21875	28980	0
3	22003	29160	1
3	22005	29160	0
3	22214	29460	1
3	22216	29460	0
3	22290	29580	1
3	22293	29580	2
3	22294	29580	1
3	22297	29580	0
3	22421	29760	1
3	22423	29760	0
3	22494	29880	1
3	22495	29880	0
3	22746	30240	1
3	22748	30240	0
3	22912	30480	1
3	22913	30480	2
3	22916	30480	1
3	22919	30480	0
3	23073	30720	1
3	23074	30720	0
3	23119	30780	1
3	23120	30780	2
3	23122	30780	1
3	23126	30780	0
3	23553	31380	1
3	23556	31380	0
3	23880	31860	1
3	23882	31860	0
3	23968	31980	1
3	23969	31980	0
3	24014	32040	1
3	24016	32040	0
3	24350	32520	1
3	24353	32520	0
3	24414	32640	1
3	24417	32640	0
3	24458	32700	1
3	24459	32700	2
3	24462	32700	1
3	24465	32700	0
3	24626	32940	1
3	24628	32940	0
3	25167	33720	1
3	25170	33720	0
3	25290	33900	1
3	25293	33900	0
3	25584	34320	1
3	25585	34320	0
3	25782	34800	1
3	25785	34800	0
3	25909	35100	1
3	25910	35100	0
3	25933	35160	1
3	25935	35160	0
3	25982	35280	1
3	25984	35280	0
3	25985	35280	1
3	25989	35280	0
3	26638	37200	1
3	26639	37200	0
4	0	0	0
4	973	1440	1
4	977	1440	0
4	1156	1680	1
4	1158	1680	2
4	1160	1680	1
4	1164	1680	0
4	1208	1740	1
4	1212	1740	0
4	2452	3240	1
4	2454	3240	0
4	2698	3540	1
4	2702	3540	0
4	2805	3660	1
4	2806	3660	2
4	2808	3660	1
4	2812	3660	0
4	3490	4500	1
4	3492	4500	0
4	3723	4800	1
4	3725	4800	0
4	4123	5280	1
4	4125	5280	2
4	4127	5280	1
4	4130	5280	0
4	4171	5340	1
4	4174	5340	0
4	4271	5460	1
4	4273	5460	0
4	4409	5640	1
4	4412	5640	0
4	4457	5700	1
4	4459	5700	0
4	4744	6060	1
4	4747	6060	0
4	4749	6060	1
4	4751	6060	0
4	4796	6120	1
4	4799	6120	0
4	5034	6420	1
4	5037	6420	0
4	5326	6780	1
4	5328	6780	0
4	5700	7260	1
4	5702	7260	0
4	6038	7680	1
4	6042	7680	0
4	6147	7800	1
4	6149	7800	0
4	6747	8580	1
4	6751	8580	0
4	7007	8880	1
4	7010	8880	0
4	7540	9540	1
4	7543	9540	0
4	7647	9660	1
4	7650	9660	2
4	7651	9660	1
4	7654	9660	0
4	8070	10200	1
4	8074	10200	0
4	8275	10440	1
4	8278	10440	0
4	8452	10680	1
4	8453	10680	2
4	8456	10680	1
4	8459	10680	0
4	8493	10740	1
4	8495	10740	0
4	8636	10920	1
4	8637	10920	2
4	8639	10920	1
4	8643	10920	0
4	8922	11280	1
4	8925	11280	0
4	9457	11940	1
4	9458	11940	2
4	9460	11940	1
4	9464	11940	0
4	9744	12300	1
4	9746	12300	2
4	9748	12300	1
4	9751	12300	0
4	10072	12720	1
4	10074	12720	0
4	10213	12900	1
4	10214	12900	0
4	10407	13140	1
4	10408	13140	0
4	10443	13200	1
4	10446	13200	0
4	10541	13320	1
4	10545	13320	0
4	10589	13380	1
4	10593	13380	0
4	10773	13620	1
4	10776	13620	0
4	11589	14640	1
4	11591	14640	0
4	11726	14820	1
4	11728	14820	2
4	11730	14820	1
4	11734	14820	0
4	11775	14880	1
4	11779	14880	0
4	11904	15060	1
4	11908	15060	0
4	12047	15240	1
4	12049	15240	0
4	12284	15540	1
4	12286	15540	0
4	12388	15660	1
4	12389	15660	0
4	13024	16500	1
4	13026	16500	0
4	13405	16980	1
4	13407	16980	0
4	13494	17100	1
4	13497	17100	0
4	13630	17280	1
4	13633	17280	0
4	14005	17760	1
4	14006	17760	0
4	14545	18480	1
4	14547	18480	2
4	14548	18480	3
4	14549	18480	2
4	14552	18480	1
4	14555	18480	0
4	14587	18540	1
4	14589	18540	2
4	14591	18540	1
4	14594	18540	0
4	14878	18960	1
4	14880	18960	2
4	14881	18960	3
4	14882	18960	2
4	14885	18960	1
4	14888	18960	0
4	14969	19080	1
4	14972	19080	0
4	15177	19380	1
4	15178	19380	2
4	15179	19380	3
4	15180	19380	4
4	15181	19380	3
4	15183	19380	2
4	15185	19380	1
4	15187	19380	0
4	15213	19440	1
4	15215	19440	2
4	15216	19440	1
4	15220	19440	0
4	15602	19980	1
4	15604	19980	0
4	15672	20100	1
4	15676	20100	0
4	15865	20340	1
4	15867	20340	0
4	15903	20400	1
4	15904	20400	0
4	15972	20520	1
4	15975	20520	2
4	15976	20520	1
4	15980	20520	0
4	16142	20760	1
4	16145	20760	0
4	16664	21540	1
4	16666	21540	0
4	16796	21720	1
4	16798	21720	0
4	17044	22080	1
4	17045	22080	2
4	17047	22080	1
4	17050	22080	0
4	17253	22380	1
4	17254	22380	0
4	17761	23100	1
4	17765	23100	0
4	18005	23460	1
4	18006	23460	0
4	18138	23640	1
4	18141	23640	0
4	18178	23700	1
4	18179	23700	2
4	18180	23700	1
4	18183	23700	0
4	18341	23940	1
4	18342	23940	2
4	18343	23940	1
4	18345	23940	0
4	18741	24540	1
4	18745	24540	0
4	19134	25080	1
4	19137	25080	0
4	19219	25200	1
4	19220	25200	0
4	19618	25800	1
4	19619	25800	2
4	19620	25800	1
4	19624	25800	0
4	19752	25980	1
4	19754	25980	0
4	20010	26340	1
4	20013	26340	0
4	20217	26640	1
4	20221	26640	0
4	20556	27120	1
4	20559	27120	0
4	20849	27540	1
4	20851	27540	0
4	20970	27720	1
4	20974	27720	0
4	20975	27720	1
4	20979	27720	0
4	21310	28200	1
4	21313	28200	0
4	21561	28560	1
4	21564	28560	2
4	21565	28560	1
4	21566	28560	2
4	21569	28560	1
4	21572	28560	0
4	21651	28680	1
4	21653	28680	2
4	21654	28680	1
4	21658	28680	0
4	22331	29640	1
4	22335	29640	0
4	22490	29880	1
4	22493	29880	0
4	22579	30000	1
4	22582	30000	0
4	22614	30060	1
4	22616	30060	0
4	23030	30660	1
4	23034	30660	0
4	23290	31020	1
4	23293	31020	0
4	23417	31200	1
4	23419	31200	0
4	23589	31440	1
4	23590	31440	0
4	23719	31620	1
4	23721	31620	0
4	23799	31740	1
4	23802	31740	0
4	23841	31800	1
4	23843	31800	0
4	23929	31920	1
4	23930	31920	0
4	24147	32220	1
4	24148	32220	0
4	24268	32400	1
4	24272	32400	0
4	24310	32460	1
4	24312	32460	0
4	25165	33720	1
4	25169	33720	0
4	25380	34020	1
4	25382	34020	0
4	25612	34380	1
4	25616	34380	0
4	25661	34500	1
4	25663	34500	2
4	25664	34500	1
4	25667	34500	0
4	25957	35220	1
4	25959	35220	0
4	26068	35520	1
4	26070	35520	0
4	26085	35580	1
4	26088	35580	0
4	26108	35640	1
4	26110	35640	0
4	26174	35820	1
4	26177	35820	0
4	26656	37260	1
4	26658	37260	0
4	26743	37560	1
4	26744	37560	2
4	26745	37560	1
4	26747	37560	0
5	0	0	0
5	8	53.109574332809	1
5	15	68.853597132447	2
5	16	70.636816755836	1
5	22	103.706050216828	0
5	27	106.432878216502	1
5	38	134.401887963111	0
5	47	172.731123815068	1
5	53	173.97072417674	0
5	65	187.784606081324	1
5	67	189.60782660381	2
5	73	194.794929139664	1
5	78	210.500076769972	2
5	80	213.524693843272	3
5	98	254.33097900211	4
5	104	262.346143642407	3
5	109	267.165162455672	4
5	110	276.926910809409	3
5	115	289.883941289877	4
5	117	292.978534899878	5
5	130	308.395228069224	6
5	131	311.181686582386	5
5	141	323.151773904342	6
5	150	349.857577596821	7
5	151	350.546042324152	6
5	175	366.664271709065	7
5	179	376.435412695224	8
5	180	380.08018130792	7
5	209	433.575247282238	6
5	214	433.993713120778	7
5	216	437.742234441136	8
5	217	441.632343319286	7
5	222	442.46636856279	8
5	226	461.187599758218	9
5	230	470.22964096271	10
5	237	478.091892108792	11
5	239	478.875555237054	12
5	257	488.75311581152	11
5	262	490.422041453184	12
5	264	493.940312361696	13
5	272	526.371209852085	12
5	296	559.761712105643	11
5	331	600.961572378794	10
5	336	601.14231936656	11
5	342	630.125891204202	10
5	374	672.614086813448	11
5	376	675.175222119672	12
5	378	684.083611358068	13
5	381	686.956472905445	12
5	385	688.288071262231	11
5	390	691.107133145694	12
5	392	695.99504210733	13
5	401	719.578832648634	14
5	424	736.749037989541	13
5	436	759.643643098778	14
5	438	759.83165811206	15
5	441	774.571381451345	14
5	464	781.715647715284	13
5	469	781.848576313877	14
5	471	785.453621353573	15
5	480	820.768442801834	16
5	506	843.421125641284	17
5	507	843.785579554112	16
5	517	850.228060405989	17
5	519	860.314936537745	18
5	520	869.069723042296	17
5	527	878.246753953463	18
5	528	883.718746569773	17
5	563	915.385731188953	16
5	573	922.676891922946	17
5	575	930.191668771082	18
5	581	942.95059855925	17
5	620	972.888277770746	18
5	621	983.578864333383	17
5	631	985.770371937198	18
5	633	995.443085668986	19
5	637	1014.690586784406	20
5	638	1014.855264299632	19
5	674	1042.350170915142	20
5	677	1055.677596290178	19
5	682	1063.467163088337	20
5	684	1066.513035593426	21
5	691	1075.67649327259	22
5	720	1087.125724301157	23
5	722	1089.223361013164	24
5	725	1101.320656453111	23
5	734	1118.685347319179	22
5	739	1139.609003614829	23
5	767	1158.728332093277	24
5	774	1169.328389656011	25
5	775	1173.205889610829	24
5	780	1179.785790257779	25
5	787	1189.131241585977	26
5	812	1200.02838414887	27
5	818	1223.042152061575	26
5	822	1251.742666356367	25
5	853	1274.227595986945	26
5	857	1282.507174440398	27
5	859	1286.969958602414	28
5	861	1290.926548751596	29
5	863	1291.300458160015	30
5	865	1295.05083718407	31
5	866	1301.60540585845	30
5	902	1326.619091626189	31
5	903	1340.049135262728	30
5	913	1340.48308701694	31
5	916	1379.335481691048	30
5	954	1434.919260061755	29
5	959	1438.06574477681	30
5	989	1443.097717039068	31
5	991	1444.259164281387	32
5	992	1450.547299432595	31
5	997	1455.657115587516	32
5	1007	1494.619109178595	31
5	1042	1518.977864150389	30
5	1047	1530.591007864022	31
5	1083	1578.522237227874	30
5	1087	1579.425649620392	29
5	1117	1623.384058391497	30
5	1124	1629.775551488954	31
5	1126	1633.882506863668	32
5	1132	1645.441292269118	31
5	1137	1656.663659877125	32
5	1138	1672.123402372513	31
5	1170	1687.756918633301	32
5	1177	1700.520690745159	33
5	1180	1714.104817369375	32
5	1185	1725.387706304131	33
5	1192	1734.761235823669	34
5	1194	1739.599628719091	35
5	1225	1746.103949078617	36
5	1227	1748.936789774521	37
5	1228	1751.812254578215	36
5	1233	1752.782018591364	37
5	1240	1769.449583404282	38
5	1244	1773.498758678244	39
5	1246	1778.083645182383	40
5	1248	1781.213160590071	41
5	1250	1784.818646581637	42
5	1256	1794.92368709462	41
5	1261	1798.209458398859	42
5	1289	1820.088655578215	41
5	1294	1827.200553927411	42
5	1296	1834.110945601586	43
5	1298	1840.874039898475	44
5	1300	1846.384598639241	45
5	1331	1867.469436273642	44
5	1341	1869.002968223015	45
5	1343	1886.660579122157	46
5	1350	1890.669423023871	47
5	1354	1903.965578014902	48
5	1360	1914.157307519335	47
5	1387	1921.336892644218	48
5	1391	1946.48163255563	49
5	1392	1948.687222146254	48
5	1396	1965.091507159019	47
5	1406	1978.590807816987	48
5	1439	2008.275657469989	49
5	1441	2008.356783896411	50
5	1447	2011.873410390083	49
5	1452	2028.760525655507	50
5	1458	2035.388188618454	49
5	1463	2035.832457160767	50
5	1465	2037.891824435152	51
5	1491	2048.313400856847	52
5	1493	2058.912632442287	53
5	1502	2088.66122752908	54
5	1509	2096.764885175929	55
5	1510	2096.93272784876	54
5	1540	2103.950763278451	55
5	1542	2104.231695103299	56
5	1544	2104.461560107469	57
5	1546	2119.710033791767	58
5	1547	2123.422702373413	57
5	1554	2149.15411695164	58
5	1561	2154.924371158602	59
5	1588	2174.353455013709	58
5	1593	2177.551946510691	59
5	1595	2183.855147085007	60
5	1597	2189.773184549968	61
5	1604	2192.592542238269	62
5	1606	2193.731872887607	63
5	1607	2206.134641149248	62
5	1612	2206.675366968469	63
5	1616	2218.856656074941	64
5	1641	2227.772855455377	63
5	1648	2233.728319910466	64
5	1650	2234.898877889396	65
5	1657	2256.477416059388	66
5	1663	2268.46159755859	65
5	1697	2286.641720691929	66
5	1699	2291.031083909805	67
5	1705	2293.305781909411	66
5	1712	2321.240315934286	67
5	1720	2332.591948238188	66
5	1725	2334.73933540735	67
5	1750	2348.143972938868	68
5	1759	2361.042142762187	69
5	1765	2390.820164179366	68
5	1770	2391.659111141053	69
5	1772	2394.764822851151	70
5	1799	2401.128260425948	69
5	1806	2417.640730433527	70
5	1808	2420.412466861989	71
5	1816	2446.732022162494	70
5	1851	2467.277265463842	71
5	1852	2484.271953377905	70
5	1866	2514.154658279813	71
5	1892	2522.096277280222	72
5	1894	2525.596178244586	73
5	1896	2525.792466972549	74
5	1902	2537.454875663569	73
5	1908	2553.453163103788	72
5	1913	2557.623589428413	73
5	1948	2605.527185216202	74
5	1955	2615.691574297258	75
5	1956	2626.023635113522	74
5	1981	2641.259222312796	73
5	1990	2670.903663410924	74
5	1997	2680.847849137776	75
5	1998	2686.120568234196	74
5	2008	2696.027144622749	75
5	2010	2698.125799569317	76
5	2039	2711.601477296519	75
5	2044	2716.91583928658	76
5	2051	2735.978290051901	77
5	2053	2736.650968470303	78
5	2057	2751.429368869086	79
5	2059	2751.743951344585	80
5	2094	2766.136849298355	81
5	2095	2766.535090085677	80
5	2100	2779.643966701804	81
5	2103	2798.019427484812	80
5	2146	2848.916831339745	79
5	2151	2852.835209071038	80
5	2153	2874.559275294184	81
5	2184	2884.143529183851	82
5	2185	2887.519047729189	81
5	2195	2900.323123086506	82
5	2197	2912.176271445239	83
5	2201	2921.119069497187	84
5	2207	2935.097980292787	83
5	2235	2958.86220407085	82
5	2242	2990.531971107896	83
5	2275	3014.421769978055	84
5	2281	3022.793320618072	83
5	2285	3045.382148342411	82
5	2317	3074.721135421776	83
5	2326	3084.098698534333	84
5	2327	3092.574642746187	83
5	2337	3106.894606667624	84
5	2339	3114.156183471307	85
5	2340	3116.338317632043	84
5	2380	3157.580701098391	85
5	2386	3170.694376051863	84
5	2390	3174.210724664591	83
5	2418	3185.367871237359	84
5	2420	3196.175925189397	85
5	2426	3219.99555425733	86
5	2433	3222.810457365901	87
5	2434	3236.586768722631	86
5	2464	3241.343229371838	87
5	2471	3247.770035429218	88
5	2472	3259.505880744796	87
5	2477	3265.711095711331	88
5	2479	3283.056936087944	89
5	2485	3299.119671526369	90
5	2514	3306.484102442164	89
5	2525	3343.754901405216	88
5	2559	3373.507837744356	89
5	2561	3377.200155202485	90
5	2563	3378.198467251011	91
5	2566	3390.129202320329	90
5	2601	3424.548988502322	91
5	2604	3430.200119828851	90
5	2609	3447.369855187389	91
5	2617	3459.605729173077	90
5	2654	3491.952224704966	89
5	2659	3492.042652209363	90
5	2666	3508.374505986322	91
5	2668	3517.33626535383	92
5	2670	3519.211373106028	93
5	2673	3522.317927535824	92
5	2678	3533.182993227609	93
5	2710	3541.572579696992	94
5	2713	3555.346718553236	93
5	2718	3558.78687384727	94
5	2727	3584.544678629474	95
5	2729	3594.393506157015	96
5	2731	3594.447643648589	97
5	2738	3599.599340975413	98
5	2764	3606.031449660475	97
5	2769	3617.944776913653	98
5	2771	3618.535413136932	99
5	2772	3626.163196455097	98
5	2786	3649.828544150882	99
5	2787	3658.272016777661	98
5	2792	3659.489604636148	99
5	2820	3664.6587896105	100
5	2827	3683.9487848457	101
5	2831	3686.813758921407	102
5	2833	3697.178315883482	103
5	2863	3728.744951320679	102
5	2867	3741.318373579077	101
5	2874	3776.00748957601	102
5	2878	3778.258088503583	103
5	2904	3782.100000026556	104
5	2915	3814.651351385255	103
5	2919	3820.211539983082	102
5	2924	3829.464721086606	103
5	2951	3849.109484774794	104
5	2964	3890.748144620395	103
5	2969	3891.265091942863	104
5	2970	3898.910291374031	103
5	3000	3918.197637713588	104
5	3004	3927.701826489296	105
5	3006	3927.805889145443	106
5	3042	3960.489996843112	105
5	3053	3986.757330923453	104
5	3063	4005.578783600839	105
5	3067	4017.774027058	106
5	3093	4021.459623286407	105
5	3102	4030.329733082082	104
5	3107	4035.70774378971	105
5	3111	4044.381733197722	106
5	3113	4056.27105353169	107
5	3142	4081.831096115012	108
5	3143	4084.309319488048	107
5	3148	4090.005449199694	108
5	3150	4090.443996813489	109
5	3152	4095.982841320048	110
5	3156	4098.935478984674	111
5	3158	4110.258070018586	112
5	3160	4116.297170088369	113
5	3166	4120.004919578735	112
5	3173	4131.059904939338	113
5	3196	4148.572680901153	114
5	3204	4163.030458709491	113
5	3214	4193.048337216157	114
5	3243	4206.840726659362	113
5	3248	4216.147827887527	114
5	3254	4218.938043250855	113
5	3259	4221.677581569547	114
5	3261	4222.883942045106	115
5	3265	4229.208684161952	116
5	3267	4241.929693584438	117
5	3274	4254.748002048359	118
5	3304	4267.817067242895	119
5	3306	4268.626226356107	120
5	3307	4268.945859410652	119
5	3312	4271.121976803284	120
5	3314	4276.486438668714	121
5	3321	4286.696690187426	122
5	3324	4303.025163367525	121
5	3329	4308.95396641966	122
5	3336	4319.159394374831	123
5	3365	4329.347964579253	124
5	3366	4341.649588802163	123
5	3376	4348.983662691248	124
5	3378	4356.817353488887	125
5	3382	4372.214592205162	126
5	3383	4373.700943047507	125
5	3388	4379.816972831931	126
5	3418	4390.213411729534	127
5	3420	4392.53924506487	128
5	3424	4407.676331409396	129
5	3431	4426.320066220709	130
5	3457	4440.563133979375	129
5	3462	4450.615180392067	130
5	3463	4452.329352690814	129
5	3498	4505.977181545823	130
5	3505	4535.429438796693	131
5	3506	4542.074999319489	130
5	3510	4546.63504901395	129
5	3542	4560.92646784769	130
5	3544	4562.283585408648	131
5	3546	4567.321081102527	132
5	3557	4606.118316294344	133
5	3558	4607.378840313408	132
5	3567	4615.656188656424	131
5	3600	4622.523496146534	132
5	3604	4632.3544033216	133
5	3642	4684.75843485921	134
5	3643	4687.225984588063	133
5	3647	4694.8540066884	132
5	3652	4708.232789416699	133
5	3658	4728.796895782436	134
5	3665	4738.241470755317	135
5	3689	4747.321299690314	136
5	3695	4756.836022462241	135
5	3700	4761.75447464414	136
5	3702	4771.822996953225	137
5	3703	4772.010132291478	136
5	3708	4775.306381375355	137
5	3738	4802.780766669097	138
5	3740	4804.478194889893	139
5	3748	4825.121414997873	138
5	3753	4827.668514210012	139
5	3761	4857.468737598669	138
5	3789	4860.12831455141	139
5	3796	4871.2289490577	140
5	3798	4873.200939061678	141
5	3800	4878.892942741483	142
5	3803	4905.297737180724	141
5	3839	4920.210158520544	140
5	3853	4955.731268810778	141
5	3854	4968.607341228428	140
5	3859	4971.212709664417	141
5	3888	4984.728364827007	140
5	3902	5022.428587959771	141
5	3903	5034.340716754596	140
5	3937	5045.118426427275	139
5	3951	5096.198027469467	140
5	3979	5104.37182562339	139
5	3989	5112.994697497172	140
5	3991	5118.75896085534	141
5	3993	5123.843054109548	142
5	3994	5125.900237488658	141
5	4001	5137.052531995176	142
5	4037	5178.517708941462	141
5	4042	5189.509042433141	142
5	4044	5198.84648598239	143
5	4045	5204.153195764447	142
5	4050	5207.69190976254	143
5	4052	5209.469994260463	144
5	4090	5250.963041908422	145
5	4096	5263.070671876609	144
5	4101	5264.339015591828	145
5	4103	5265.652279295366	146
5	4104	5269.763606796573	145
5	4109	5271.791826946212	146
5	4111	5276.643406123727	147
5	4136	5295.080991289317	148
5	4140	5313.694462421778	149
5	4148	5338.3148192052	148
5	4152	5338.824217982324	147
5	4157	5339.67844907043	148
5	4184	5340.859030127552	149
5	4195	5368.997641033077	150
5	4202	5379.827090906349	151
5	4204	5383.624926055608	152
5	4237	5410.249678496099	151
5	4242	5418.461206484856	152
5	4243	5421.062685808105	151
5	4248	5427.813688030221	152
5	4283	5463.526304807152	151
5	4287	5472.803700138537	150
5	4299	5499.986788368818	151
5	4301	5502.718965562639	152
5	4310	5511.613334661741	153
5	4342	5553.059269729027	152
5	4347	5566.942938022842	153
5	4348	5571.429873698577	152
5	4353	5572.793499481309	153
5	4374	5586.334733728412	154
5	4380	5601.549065765104	155
5	4387	5619.253402658132	156
5	4389	5626.865220644381	157
5	4396	5631.430153108349	158
5	4423	5644.681957829092	157
5	4427	5649.932152331684	156
5	4432	5663.261795369916	157
5	4443	5695.014381121348	158
5	4470	5703.462450109407	159
5	4477	5706.513973072204	160
5	4478	5710.918328903936	159
5	4482	5728.621499414892	158
5	4489	5746.704145406215	159
5	4493	5750.483715740576	160
5	4526	5769.897030697493	161
5	4527	5772.632400159616	160
5	4537	5780.161198322167	161
5	4539	5788.721301331364	162
5	4540	5791.008916206146	161
5	4545	5801.169261818293	162
5	4581	5836.408114749194	161
5	4586	5842.923067080935	162
5	4592	5865.060496737978	161
5	4597	5870.507374095691	162
5	4631	5896.653201795706	163
5	4635	5913.062553154088	164
5	4642	5927.63083266227	165
5	4643	5929.397439755461	164
5	4667	5940.901266360954	165
5	4669	5941.68767135953	166
5	4670	5945.332818710494	165
5	4715	6008.158913887583	166
5	4716	6008.351450873074	165
5	4721	6013.951627846151	166
5	4722	6018.91121282424	165
5	4727	6021.969152119071	166
5	4757	6061.794281945831	167
5	4764	6071.852530279414	168
5	4766	6079.298165942184	169
5	4773	6093.311586785352	170
5	4774	6094.849398186932	169
5	4778	6097.425032570434	168
5	4783	6103.277363129584	169
5	4819	6159.286311926509	168
5	4828	6164.911347993373	167
5	4833	6176.131556889968	168
5	4858	6189.819935721219	169
5	4860	6203.3493333186	170
5	4869	6215.634938890936	171
5	4871	6223.416940059027	172
5	4878	6226.313262748691	173
5	4879	6237.947811811817	172
5	4884	6239.491433685444	173
5	4909	6246.064674838833	174
5	4910	6255.131634907872	173
5	4947	6302.055130208118	174
5	4948	6310.743580968097	173
5	4952	6313.888883121832	172
5	4962	6319.939130012415	173
5	5005	6371.036745807219	174
5	5006	6387.564981070495	173
5	5011	6400.537112098624	174
5	5012	6401.649368600346	173
5	5017	6401.795801735878	174
5	5046	6428.496663422401	175
5	5053	6441.563932766673	176
5	5059	6478.053081941829	175
5	5089	6482.979499894796	174
5	5094	6492.146561566026	175
5	5098	6497.200369104388	176
5	5105	6514.661150138817	177
5	5107	6516.935110707218	178
5	5140	6557.472849848726	179
5	5141	6559.776986387268	178
5	5146	6563.058607888962	179
5	5147	6568.517577239366	178
5	5152	6576.529823698227	179
5	5156	6596.941873391316	180
5	5182	6602.139512432934	181
5	5190	6612.481134430977	180
5	5195	6615.62287702224	181
5	5197	6618.393313864454	182
5	5199	6627.018980507438	183
5	5206	6639.771614892522	184
5	5208	6641.182062184373	185
5	5210	6642.69279140256	186
5	5211	6643.109914795642	185
5	5247	6688.542093937506	184
5	5252	6700.287667029234	185
5	5254	6703.346431764147	186
5	5261	6718.695310224887	187
5	5286	6730.751588312445	188
5	5288	6735.202701052031	189
5	5289	6739.160754876435	188
5	5299	6756.320919038322	189
5	5301	6757.690932673967	190
5	5305	6763.865848032815	191
5	5307	6764.145089397911	192
5	5309	6764.417104917671	193
5	5310	6769.243301181297	192
5	5343	6812.947616100017	193
5	5349	6824.71775995931	192
5	5353	6829.465350226237	191
5	5382	6844.277812203714	192
5	5384	6845.326332580758	193
5	5394	6876.108595995891	192
5	5399	6892.367450282187	193
5	5426	6907.508456615636	192
5	5440	6940.542505096135	193
5	5447	6957.096541531291	194
5	5473	6963.504976852895	193
5	5478	6967.2437946528	194
5	5481	6998.597862437512	193
5	5491	7010.289105304317	194
5	5493	7016.086174016133	195
5	5520	7030.957183762393	196
5	5522	7032.238054123795	197
5	5530	7070.122806615252	196
5	5534	7072.389601918965	195
5	5539	7075.498318104904	196
5	5565	7094.591571469127	197
5	5567	7100.773925273229	198
5	5574	7104.345906134519	199
5	5600	7142.269801620143	198
5	5605	7146.231255085435	199
5	5606	7146.601024401895	198
5	5618	7157.76543418734	199
5	5622	7166.621232628238	200
5	5624	7176.032522152409	201
5	5631	7179.607503221206	202
5	5633	7191.25300984424	203
5	5665	7212.30364535735	202
5	5670	7216.430929947287	203
5	5671	7226.651675751291	202
5	5676	7238.518134741941	203
5	5680	7258.448193550884	204
5	5710	7260.005157663546	205
5	5712	7269.198018224425	206
5	5713	7275.147980987784	205
5	5723	7286.70064993592	206
5	5725	7290.29082385569	207
5	5732	7298.313530846871	208
5	5733	7302.791483428481	207
5	5740	7318.657316701756	208
5	5767	7324.061758692198	209
5	5769	7325.489110904577	210
5	5771	7327.778605492415	211
5	5784	7374.010199917431	210
5	5788	7375.540809510267	209
5	5814	7385.122726946563	210
5	5818	7409.859572208211	211
5	5827	7434.371032246976	212
5	5833	7438.405577744377	211
5	5863	7453.451544155976	210
5	5868	7454.472756703626	211
5	5902	7500.166139482766	212
5	5908	7506.734851547111	211
5	5913	7518.026677274177	212
5	5916	7527.420028331191	211
5	5960	7569.424348394519	212
5	5962	7572.33754835789	213
5	5963	7590.533935331282	212
5	5968	7598.214310490274	213
5	5969	7598.987561467017	212
5	5998	7620.066850409588	213
5	6003	7645.207617379683	212
5	6013	7660.394068787225	213
5	6014	7661.169939688592	212
5	6019	7666.862662295586	213
5	6051	7687.700300273504	214
5	6055	7690.798986587262	215
5	6059	7700.989595333992	216
5	6066	7708.160527026113	217
5	6067	7717.738857891488	216
5	6071	7725.560937094619	215
5	6083	7736.361412840873	216
5	6118	7766.075668193868	217
5	6124	7772.9964393734	216
5	6128	7779.044784416662	215
5	6133	7799.035480915144	216
5	6160	7802.247753074164	217
5	6175	7851.879963821811	216
5	6202	7870.487025733133	215
5	6207	7883.737578035126	216
5	6243	7925.591908461639	217
5	6244	7927.437319097266	216
5	6249	7928.070515134502	217
5	6255	7946.246043517142	216
5	6260	7947.660316759021	217
5	6262	7963.884478646295	218
5	6264	7965.67847884778	219
5	6270	7974.493275785554	220
5	6272	7975.788075679565	221
5	6300	7995.766231077768	222
5	6301	7997.297989349938	221
5	6306	8000.252880126716	222
5	6313	8017.099142486287	223
5	6314	8019.173142719212	222
5	6321	8031.45124828263	223
5	6323	8032.635012237952	224
5	6356	8058.066604230386	223
5	6361	8063.650445806236	224
5	6398	8105.21375481361	223
5	6403	8111.529861839043	224
5	6406	8134.528786446228	223
5	6410	8135.971618774572	222
5	6452	8189.233026109712	221
5	6458	8192.454707406242	220
5	6497	8224.86457297009	221
5	6499	8225.296374584973	222
5	6511	8270.768065077134	223
5	6512	8275.760456067771	222
5	6517	8277.679299811409	223
5	6542	8282.516310596457	222
5	6556	8332.922466113395	223
5	6582	8342.572549804352	224
5	6588	8358.494664227896	223
5	6592	8371.702461329687	222
5	6630	8406.043772458249	223
5	6634	8411.863474875408	224
5	6636	8413.92208116126	225
5	6642	8433.897457612963	224
5	6647	8434.863262364254	225
5	6649	8435.967884055636	226
5	6653	8456.579412988611	227
5	6654	8459.092495106734	226
5	6684	8466.670411549581	227
5	6693	8498.143948565966	228
5	6724	8533.666904270704	227
5	6728	8543.760512959899	226
5	6762	8585.06795560178	225
5	6772	8601.256312127114	226
5	6774	8606.259664713909	227
5	6783	8616.505517655388	228
5	6784	8625.543209376219	227
5	6820	8645.742663987441	228
5	6823	8668.945297115026	227
5	6832	8682.493686803121	226
5	6864	8705.37132556198	227
5	6868	8712.599101214843	228
5	6875	8731.622031487443	229
5	6876	8738.558665140874	228
5	6885	8748.517563768662	227
5	6892	8759.812306664682	228
5	6925	8788.911571314184	229
5	6926	8793.809896506289	228
5	6931	8795.681332532134	229
5	6965	8822.582217009646	228
5	6977	8839.133183607108	229
5	6978	8846.201687858334	228
5	6988	8871.544756619339	229
5	6990	8873.294979951035	230
5	6992	8873.56961185066	231
5	7022	8888.088131642806	232
5	7024	8888.70129089041	233
5	7025	8894.717629219993	232
5	7030	8899.948779229443	233
5	7037	8913.90768438819	234
5	7040	8921.035033404598	233
5	7050	8937.853840388307	234
5	7077	8942.026605524294	233
5	7084	8959.858908187932	234
5	7092	8975.172775257332	233
5	7102	8988.726255694738	234
5	7106	8996.948306863399	235
5	7131	9004.473927932394	236
5	7137	9048.586366180313	235
5	7142	9056.091378708002	236
5	7170	9066.182766135397	237
5	7172	9073.41425512878	238
5	7173	9074.432802720535	237
5	7180	9094.083288023543	238
5	7189	9109.112377596525	239
5	7219	9136.702901503606	238
5	7224	9150.382257750878	239
5	7226	9153.263675643505	240
5	7227	9157.938350679755	239
5	7265	9192.637723711484	240
5	7269	9209.509415667085	241
5	7270	9212.853653766426	240
5	7280	9219.613250018998	241
5	7282	9226.636418590876	242
5	7308	9244.651562306308	241
5	7320	9284.797789345321	242
5	7326	9294.588681242469	241
5	7360	9320.444641804339	240
5	7370	9338.014663535604	241
5	7372	9354.132707020102	242
5	7398	9379.405178922548	241
5	7408	9390.247363973067	242
5	7410	9392.38513191081	243
5	7411	9392.490831061465	242
5	7416	9399.667431622047	243
5	7418	9399.846309144725	244
5	7422	9412.122787119925	245
5	7461	9451.978498380634	244
5	7466	9456.506313685288	245
5	7468	9465.745140182536	246
5	7469	9479.7549593398	245
5	7499	9486.334517878156	246
5	7503	9500.797044151119	247
5	7505	9504.112052866338	248
5	7507	9507.138734617911	249
5	7516	9520.210733773774	250
5	7518	9524.105147489834	251
5	7524	9536.138152031013	250
5	7555	9540.732880350568	249
5	7560	9559.60040424001	250
5	7566	9582.082567712936	251
5	7572	9586.608270459965	250
5	7577	9591.587484770286	251
5	7602	9606.091560841499	250
5	7612	9617.008913992099	251
5	7614	9622.024965971336	252
5	7618	9631.938924092699	253
5	7619	9639.880670912163	252
5	7631	9645.561132466224	253
5	7632	9659.11797498892	252
5	7669	9677.365322969988	253
5	7681	9706.927452784696	254
5	7706	9731.688961484363	255
5	7707	9742.19973465737	254
5	7711	9751.019569946871	253
5	7750	9803.176189810448	252
5	7755	9809.212655199962	253
5	7756	9819.863410845115	252
5	7801	9860.533000044165	253
5	7803	9870.169400948778	254
5	7809	9880.825129053825	253
5	7841	9906.928540388127	252
5	7846	9917.564020166933	253
5	7853	9935.215208223157	254
5	7857	9943.789837722088	255
5	7858	9958.572880306286	254
5	7895	9965.989174336354	255
5	7896	9969.341139617975	254
5	7905	9994.743008890184	255
5	7940	10045.192185382427	256
5	7941	10049.559595120902	255
5	7945	10051.008382512401	254
5	7950	10058.336367544699	255
5	7952	10067.199206681495	256
5	7983	10089.131806068264	257
5	7990	10097.11015083183	258
5	7992	10097.9448252	259
5	7993	10105.920639226331	258
5	8002	10123.971073860747	257
5	8009	10136.44657596171	258
5	8034	10146.309141358283	259
5	8043	10178.880708293155	260
5	8045	10179.470949900081	261
5	8051	10192.154399058087	260
5	8058	10197.213243959402	261
5	8085	10200.034747997998	262
5	8086	10200.753672050776	261
5	8091	10209.372662167905	262
5	8098	10228.85982801947	263
5	8100	10235.143106005897	264
5	8104	10247.19657154202	265
5	8106	10253.250323272764	266
5	8136	10265.898181888662	265
5	8141	10278.265865650714	266
5	8142	10280.263801709104	265
5	8150	10314.945041549104	264
5	8182	10337.683113877849	263
5	8194	10357.166020006659	264
5	8202	10371.508713333814	263
5	8207	10374.983929599578	264
5	8209	10375.082755893278	265
5	8211	10379.091384482185	266
5	8241	10382.656309801155	267
5	8247	10406.412597243861	266
5	8252	10410.644765543581	267
5	8285	10446.809023734934	268
5	8286	10451.599510203708	267
5	8298	10488.508925692377	268
5	8301	10489.686378894764	267
5	8306	10494.905666685325	268
5	8329	10505.339808031239	269
5	8342	10545.061371387167	268
5	8370	10560.712977877916	267
5	8377	10565.700288528422	268
5	8379	10567.078638863606	269
5	8381	10577.489049595215	270
5	8383	10582.872023989967	271
5	8420	10637.18482923537	270
5	8424	10638.13498292212	269
5	8431	10663.678540884398	270
5	8433	10675.862843388417	271
5	8467	10698.38797369061	272
5	8473	10712.16401665901	271
5	8478	10719.298708353645	272
5	8505	10741.674191806393	271
5	8519	10779.479150442602	272
5	8521	10784.486623789817	273
5	8555	10801.517609977622	274
5	8556	10802.057277352528	273
5	8561	10807.116042759966	274
5	8563	10823.326995260627	275
5	8564	10824.655343838638	274
5	8578	10855.815526206238	275
5	8603	10869.57414210315	274
5	8614	10903.384310087412	273
5	8651	10937.220056196999	274
5	8653	10937.890063632592	275
5	8660	10943.638451237376	276
5	8662	10943.842790396236	277
5	8663	10945.431889793721	276
5	8668	10958.332785403612	277
5	8670	10967.818822196751	278
5	8672	10975.178570140297	279
5	8698	10993.541287328813	278
5	8702	10995.997376034474	277
5	8716	11030.869777304485	278
5	8755	11074.060618301167	279
5	8756	11075.393276491361	278
5	8760	11077.126783941847	277
5	8797	11136.590948690223	278
5	8799	11138.91450403274	279
5	8806	11149.027424553372	280
5	8834	11160.150646703846	281
5	8835	11160.874678559742	280
5	8839	11160.978789432427	279
5	8844	11178.029937221728	280
5	8846	11183.465391114538	281
5	8848	11184.262448930445	282
5	8854	11212.965966469098	283
5	8861	11219.252818148398	284
5	8883	11223.573837236059	283
5	8892	11251.751738681091	282
5	8897	11252.063564122949	283
5	8899	11255.418342318851	284
5	8903	11275.994972946357	285
5	8933	11283.494365366184	286
5	8934	11289.554861835826	285
5	8940	11303.46371407792	284
5	8950	11314.561981942517	285
5	8956	11334.009150069282	286
5	8990	11361.949874523168	285
5	9001	11383.485173817141	284
5	9036	11406.92043780858	285
5	9038	11408.460748291821	286
5	9042	11418.130840316715	287
5	9043	11425.317325147964	286
5	9055	11455.349236126066	287
5	9056	11459.878632114217	286
5	9092	11504.309696985027	285
5	9123	11532.925392705588	286
5	9126	11547.740711366294	285
5	9136	11566.243625187501	286
5	9162	11586.798562016896	285
5	9169	11606.908112904492	286
5	9170	11611.086829080364	285
5	9182	11619.106272414599	286
5	9184	11633.069844606154	287
5	9218	11649.486604884373	288
5	9219	11650.795124950271	287
5	9223	11656.018727424894	286
5	9233	11673.884054798216	287
5	9235	11687.263473021914	288
5	9236	11695.119598823552	287
5	9281	11741.622049355038	286
5	9316	11760.804880166915	287
5	9318	11762.880513423245	288
5	9320	11765.016282869856	289
5	9321	11767.72019641066	288
5	9328	11779.275061437495	289
5	9337	11793.640607125289	290
5	9339	11800.822781585641	291
5	9345	11819.041821393811	290
5	9375	11843.590768272098	291
5	9377	11847.740131940666	292
5	9378	11853.271103932692	291
5	9388	11861.823203138103	292
5	9390	11866.335295469591	293
5	9392	11869.712455846736	294
5	9419	11886.921219732442	293
5	9426	11893.377784979163	294
5	9428	11895.755074718014	295
5	9430	11900.819857111292	296
5	9432	11908.574971912541	297
5	9439	11924.100570282921	298
5	9443	11935.862817449292	299
5	9469	11941.74975328959	298
5	9481	11956.526538578728	299
5	9482	11958.486660407652	298
5	9487	11959.018354202389	299
5	9494	11971.142698849202	300
5	9496	11975.8470907	301
5	9498	11976.925598137258	302
5	9500	11985.463244771691	303
5	9502	11990.590610933633	304
5	9533	12002.699391729983	305
5	9539	12029.668246806917	304
5	9543	12032.56306701206	303
5	9581	12088.940093073374	304
5	9587	12094.904007436166	303
5	9591	12095.947180823309	302
5	9620	12124.848889920992	303
5	9622	12127.027184784433	304
5	9628	12148.956561279253	305
5	9635	12156.373560223748	306
5	9637	12158.758041144134	307
5	9644	12177.446149551371	308
5	9670	12196.355981702116	307
5	9674	12199.126099910203	306
5	9704	12240.605781661656	307
5	9711	12252.856340795956	308
5	9718	12268.800670615073	309
5	9719	12270.350334148374	308
5	9724	12293.192127903542	309
5	9726	12294.606012054535	310
5	9729	12298.979522339556	309
5	9762	12338.361573795185	310
5	9764	12344.297726561759	311
5	9768	12351.856654595003	312
5	9769	12356.697163199324	311
5	9803	12369.185681299474	310
5	9808	12369.448401332792	311
5	9810	12385.551634064406	312
5	9848	12449.511054148371	311
5	9852	12462.764676245809	310
5	9857	12467.282417256512	311
5	9888	12486.662200378112	312
5	9890	12500.424591266952	313
5	9894	12503.917848476496	314
5	9901	12513.164756739542	315
5	9903	12516.50812288588	316
5	9910	12535.293880939179	317
5	9912	12535.418335734078	318
5	9935	12540.597193429939	319
5	9936	12542.114799848758	318
5	9940	12543.504015423146	317
5	9953	12593.552793254277	316
5	9958	12594.348296218808	317
5	9989	12610.000223997145	318
5	9990	12627.908812963334	317
5	9997	12647.735501782389	318
5	10032	12663.825412109852	319
5	10033	12669.808348884341	318
5	10043	12692.198607090684	319
5	10044	12693.342870629066	318
5	10051	12702.152845148351	319
5	10053	12718.291084414995	320
5	10084	12724.213708246038	321
5	10088	12728.966621796323	322
5	10094	12751.448793457882	321
5	10098	12770.905824306046	320
5	10126	12785.82414711136	321
5	10130	12804.998638131973	322
5	10139	12820.37570168463	323
5	10141	12823.317182555034	324
5	10142	12825.363377354855	323
5	10147	12827.120867912503	324
5	10176	12848.188612185128	323
5	10183	12863.545724398551	324
5	10185	12866.791762305384	325
5	10189	12880.725757049411	326
5	10196	12897.79177995733	327
5	10229	12906.621002804201	328
5	10231	12913.837668956462	329
5	10232	12914.536515568175	328
5	10236	12916.211069549136	327
5	10241	12918.805356969498	328
5	10243	12929.936449529661	329
5	10247	12947.487394175614	330
5	10251	12953.72987503729	331
5	10279	12963.691719545	332
5	10285	12990.641896842148	331
5	10289	13000.362082027911	330
5	10322	13029.312210232259	331
5	10330	13062.293046228448	330
5	10335	13067.62279942198	331
5	10337	13077.172758400385	332
5	10368	13087.558030609459	333
5	10371	13096.277006965516	332
5	10383	13120.266224602323	333
5	10384	13133.620211077303	332
5	10423	13174.601049829989	331
5	10428	13197.395140118007	332
5	10458	13202.707576937451	333
5	10460	13203.718401320609	334
5	10461	13205.685345946276	333
5	10466	13217.451543775062	334
5	10475	13245.813363525547	335
5	10477	13251.680394860838	336
5	10479	13254.60875081668	337
5	10508	13274.605590716584	336
5	10513	13282.262815947135	337
5	10517	13304.313841289801	338
5	10519	13304.752656394557	339
5	10520	13308.702300980556	338
5	10557	13341.508336087448	339
5	10559	13342.266135854554	340
5	10566	13352.774006765298	341
5	10567	13354.852466881771	340
5	10571	13357.979436992987	339
5	10601	13381.508665273395	340
5	10612	13415.770197559876	341
5	10619	13429.176102035484	342
5	10620	13434.636702889729	341
5	10647	13449.192902528064	340
5	10656	13469.785865419214	341
5	10663	13478.889784110792	342
5	10664	13480.408403263823	341
5	10669	13496.650759007831	342
5	10701	13532.532168095029	341
5	10713	13555.895453710942	342
5	10714	13557.355062375886	341
5	10749	13603.296299771766	342
5	10750	13614.703096098091	341
5	10785	13626.10813954664	342
5	10786	13630.106580422588	341
5	10791	13631.523055889994	342
5	10793	13637.977846612452	343
5	10795	13653.330217832202	344
5	10799	13658.318588957281	345
5	10834	13680.348946995128	346
5	10835	13688.140586012651	345
5	10840	13690.325535810896	346
5	10847	13696.88256412033	347
5	10849	13707.402077112023	348
5	10850	13712.471582492301	347
5	10892	13777.340398063327	346
5	10896	13782.937653266816	345
5	10901	13797.821056154174	346
5	10928	13801.695271730841	347
5	10930	13809.135332107448	348
5	10932	13810.074027305906	349
5	10938	13823.533914645388	350
5	10945	13836.002407526852	351
5	10946	13838.300893103607	350
5	10950	13843.400991032555	349
5	10955	13847.453991527965	350
5	10988	13863.937282047916	351
5	10996	13901.252502048364	350
5	11001	13906.521115875372	351
5	11009	13913.67544999945	350
5	11080	13983.277659110598	351
5	11081	13984.577621642335	350
5	11085	13988.800547207826	349
5	11090	14002.224930323213	350
5	11096	14021.1692543973	351
5	11134	14069.016537580125	352
5	11136	14069.404925629608	353
5	11137	14072.453432993053	352
5	11142	14076.853057765856	353
5	11143	14093.655099404562	352
5	11175	14114.666359508513	353
5	11183	14131.693890983351	352
5	11188	14134.654597353339	353
5	11194	14158.675023716584	352
5	11225	14191.92034465417	351
5	11235	14199.851742582649	352
5	11271	14220.572298878803	353
5	11272	14223.734576419583	352
5	11277	14238.236982645007	353
5	11283	14252.456844702274	352
5	11288	14253.255980197903	353
5	11290	14255.60473149035	354
5	11294	14261.545255617669	355
5	11296	14268.094026551555	356
5	11298	14274.305560479796	357
5	11329	14290.397897348012	358
5	11330	14296.461931223328	357
5	11370	14357.404911891822	358
5	11372	14358.894036658347	359
5	11373	14359.531759287053	358
5	11378	14366.902420516439	359
5	11381	14380.808723754669	358
5	11417	14419.995885261992	359
5	11419	14431.825162716808	360
5	11421	14433.329850182262	361
5	11427	14441.343414593346	360
5	11432	14445.356734358597	361
5	11433	14450.899068172788	360
5	11462	14467.511500227795	361
5	11469	14487.73394571701	362
5	11471	14489.35977068524	363
5	11478	14504.966287118494	364
5	11479	14510.042537340777	363
5	11509	14534.576762876197	362
5	11516	14553.893586349347	363
5	11525	14578.134851235054	364
5	11554	14588.735403814201	363
5	11558	14600.000624487668	362
5	11565	14610.247347875057	363
5	11569	14627.488440047337	364
5	11603	14658.154227535614	363
5	11607	14670.318931779707	362
5	11612	14672.539542905804	363
5	11616	14695.793076209961	364
5	11640	14703.555027348707	365
5	11649	14711.113701129723	366
5	11650	14720.558754498211	365
5	11655	14721.546800092048	366
5	11657	14721.862805722661	367
5	11663	14737.178741817003	366
5	11670	14744.656728647471	367
5	11672	14753.05120566495	368
5	11708	14810.264321089085	367
5	11739	14827.578696168383	366
5	11744	14831.451341799027	367
5	11760	14879.772070209333	368
5	11786	14888.659628697042	367
5	11792	14922.185812933602	366
5	11796	14931.085279148388	365
5	11827	14943.655416460277	366
5	11838	14980.990276305408	367
5	11839	14989.561607650604	366
5	11849	14995.806196505454	367
5	11876	15019.180344926725	366
5	11883	15038.114611581662	367
5	11885	15043.493477529618	368
5	11924	15071.473375924142	367
5	11928	15074.512470096139	366
5	11974	15136.705438081329	367
5	11975	15156.295031153895	366
5	11980	15159.483818576342	367
5	11982	15164.620185111177	368
5	11983	15166.033239354994	367
5	12014	15191.336807092403	368
5	12016	15203.288512383222	369
5	12022	15224.580617350101	368
5	12031	15231.872715791507	367
5	12071	15289.132825292619	366
5	12075	15292.948686873026	365
5	12102	15312.133175227527	366
5	12112	15352.442091931487	365
5	12144	15368.826825196578	364
5	12149	15369.9513134374	365
5	12151	15379.564980891774	366
5	12155	15393.388173499232	367
5	12191	15424.891155607323	366
5	12200	15442.275953420533	365
5	12205	15452.254226018207	366
5	12211	15462.344068667853	367
5	12237	15489.177542887527	368
5	12239	15489.43757976136	369
5	12240	15489.718817010177	368
5	12245	15490.079893261593	369
5	12253	15521.402126037236	368
5	12263	15533.762038680248	369
5	12265	15536.680499663628	370
5	12267	15537.783628426955	371
5	12293	15542.722805538975	370
5	12298	15546.71981070665	371
5	12300	15552.802309514516	372
5	12302	15553.712921405038	373
5	12304	15554.322414315128	374
5	12311	15560.018502705696	375
5	12315	15564.304178609762	376
5	12322	15588.331380861863	377
5	12323	15596.540085489012	376
5	12328	15596.614992934275	377
5	12354	15606.779297238036	378
5	12356	15608.045454183297	379
5	12358	15620.67407096033	380
5	12359	15624.509211914301	379
5	12364	15633.100323813332	380
5	12368	15638.55136007256	381
5	12399	15670.677794200856	380
5	12409	15698.661372077763	381
5	12439	15727.538032748512	380
5	12448	15740.886696122277	379
5	12453	15742.66200909522	380
5	12457	15770.015695289784	381
5	12489	15787.588109828323	382
5	12495	15811.605913859246	381
5	12500	15813.290437880196	382
5	12501	15823.0562103936	381
5	12532	15855.082205332719	382
5	12534	15855.617080949467	383
5	12538	15858.773664345429	384
5	12544	15885.406052176651	383
5	12553	15897.631098745152	382
5	12587	15919.550549662978	383
5	12596	15936.78764255923	384
5	12598	15937.686089170051	385
5	12600	15954.038680940015	386
5	12607	15957.834755327448	387
5	12630	15965.562260880226	386
5	12634	15970.020279319247	385
5	12639	15974.211086446239	386
5	12641	15982.991812332442	387
5	12647	16001.399468684929	388
5	12677	16033.798770501414	387
5	12682	16046.04414780611	388
5	12684	16046.398238999862	389
5	12688	16072.169325519912	390
5	12689	16073.899539808409	389
5	12693	16074.016103340924	388
5	12717	16080.878786211436	389
5	12732	16128.396550760319	388
5	12761	16142.956734908441	389
5	12764	16153.019583980917	388
5	12769	16169.375056665392	389
5	12776	16172.143527780127	390
5	12805	16210.905720137963	389
5	12810	16217.567266817902	390
5	12811	16224.067563478821	389
5	12816	16224.167035171304	390
5	12846	16270.60721194415	391
5	12847	16277.998213045486	390
5	12857	16281.839961016032	391
5	12858	16286.288908048124	390
5	12863	16300.368142608945	391
5	12897	16328.895659223666	392
5	12899	16341.40886127709	393
5	12905	16349.952357014074	392
5	12909	16356.784031333546	391
5	12914	16358.722797846099	392
5	12942	16381.988947167346	393
5	12946	16393.343705842218	394
5	12953	16395.790173964477	395
5	12954	16414.594261067864	394
5	12964	16429.946528802962	395
5	12986	16440.431977877383	394
5	12993	16472.99975766635	395
5	12999	16475.017842548794	394
5	13004	16487.94429144893	395
5	13005	16493.217306508439	394
5	13076	16563.079404595205	395
5	13077	16563.500664811673	394
5	13082	16566.089587773841	395
5	13083	16576.79764884768	394
5	13119	16637.502917383299	393
5	13128	16651.059822272229	392
5	13133	16655.235527639526	393
5	13135	16661.175129389322	394
5	13137	16663.354764429215	395
5	13168	16686.551953834241	396
5	13174	16704.458248270186	395
5	13184	16712.766029184897	396
5	13186	16718.695599375986	397
5	13188	16721.85086074527	398
5	13190	16726.988906258808	399
5	13191	16734.748613971764	398
5	13219	16747.024007331547	399
5	13228	16785.595596310561	400
5	13234	16793.845641721295	399
5	13262	16800.300921283802	400
5	13264	16808.328901185806	401
5	13266	16811.565494273429	402
5	13267	16815.947641804173	401
5	13273	16838.531907950082	400
5	13283	16848.882830271742	401
5	13312	16867.791316617892	402
5	13314	16869.280213327853	403
5	13320	16875.355255968419	402
5	13324	16881.874707247709	401
5	13333	16902.875454938495	402
5	13337	16904.07420058839	403
5	13367	16920.053957503515	404
5	13373	16942.095149896208	403
5	13383	16948.986144280026	404
5	13385	16965.680479718461	405
5	13386	16967.890980705081	404
5	13423	16989.059073241225	405
5	13427	17004.6351618327	406
5	13429	17007.116182085777	407
5	13431	17014.270460629602	408
5	13433	17015.147084362945	409
5	13439	17028.576619142275	408
5	13465	17041.960105941568	409
5	13468	17064.455930476536	408
5	13508	17140.1371196505	407
5	13512	17143.992205315737	406
5	13519	17158.454377890191	407
5	13554	17179.83186127636	408
5	13560	17204.08440815711	407
5	13565	17204.715206272731	408
5	13566	17206.940956123623	407
5	13604	17264.548430011826	408
5	13605	17265.228053016584	407
5	13615	17278.156319324091	408
5	13639	17283.907600545877	407
5	13651	17310.275762517391	408
5	13654	17327.885525174357	407
5	13687	17347.237306660655	408
5	13691	17355.474458003905	409
5	13693	17360.233419896059	410
5	13700	17379.022767774289	411
5	13701	17383.619200472978	410
5	13728	17408.941242490147	411
5	13729	17419.848719758436	410
5	13736	17425.786544603918	411
5	13745	17448.972337853544	412
5	13769	17464.460564010728	411
5	13779	17467.402198766354	412
5	13781	17470.749687256547	413
5	13783	17478.451617839127	414
5	13785	17484.072109074346	415
5	13786	17490.311810071938	414
5	13791	17492.863477204783	415
5	13795	17498.158468087775	416
5	13796	17504.048001601339	415
5	13803	17512.872225922549	416
5	13830	17524.942405822335	417
5	13834	17531.119390732081	418
5	13841	17546.303734955949	419
5	13843	17550.217138145829	420
5	13845	17552.800219748624	421
5	13852	17565.307081179467	422
5	13853	17573.957608378981	421
5	13877	17584.092092818427	422
5	13878	17596.432686002649	421
5	13883	17596.722657406023	422
5	13885	17599.18521311762	423
5	13889	17610.518909854877	424
5	13896	17627.538136304034	425
5	13898	17629.523215325209	426
5	13927	17664.793434236817	425
5	13931	17666.952742482068	424
5	13941	17683.110310262998	425
5	13943	17695.499236531402	426
5	13978	17734.048410328158	425
5	13988	17756.274437709277	426
5	13990	17758.866095602876	427
5	14016	17762.913237373821	426
5	14023	17770.799909930387	427
5	14025	17779.117227205176	428
5	14027	17785.26556660119	429
5	14034	17790.711474836883	430
5	14036	17799.783991421425	431
5	14037	17804.596778406056	430
5	14044	17806.680309666984	431
5	14079	17846.083197107757	430
5	14084	17855.441677006225	431
5	14091	17871.544059188203	432
5	14118	17881.594862432418	431
5	14132	17902.864790428949	432
5	14133	17917.756348532196	431
5	14143	17923.808137693691	432
5	14145	17928.317014846802	433
5	14146	17936.090471119629	432
5	14176	17951.754310408507	433
5	14178	17952.199590356064	434
5	14180	17954.336114784318	435
5	14191	17980.826985024078	436
5	14193	17992.904234998075	437
5	14195	17992.968365705553	438
5	14221	18007.744549004674	437
5	14225	18014.151553725986	436
5	14263	18086.37754549139	435
5	14272	18106.667072847121	434
5	14313	18173.734678846291	433
5	14341	18184.708134550069	432
5	14354	18224.91980735876	431
5	14387	18252.019864216688	430
5	14391	18263.792521283946	429
5	14432	18314.146829492321	428
5	14438	18334.499661197142	427
5	14480	18386.238924152274	426
5	14491	18407.699117305016	425
5	14530	18453.915378529052	424
5	14566	18507.459644855452	423
5	14572	18532.176126201121	422
5	14611	18590.88027186892	421
5	14638	18608.954481384396	420
5	14651	18656.313750107862	419
5	14655	18657.381694572228	418
5	14723	18729.998769227903	417
5	14732	18739.020057329992	416
5	14774	18806.957753498579	415
5	14780	18835.670289361191	414
5	14814	18878.87570925808	413
5	14848	18913.903912464021	412
5	14854	18925.170597816282	411
5	14902	18984.450689090773	410
5	14906	18989.712821394308	409
5	14948	19061.413433166464	408
5	14952	19068.721290504175	407
5	14988	19122.585771840986	406
5	14997	19139.362514450127	405
5	15035	19198.283070169086	404
5	15070	19225.109748158344	403
5	15078	19257.56240588244	402
5	15122	19315.800532071574	401
5	15150	19340.960741689152	400
5	15191	19398.098588805367	399
5	15195	19410.765805016284	398
5	15234	19467.287228421604	397
5	15243	19493.776347961448	396
5	15282	19533.133916644557	395
5	15325	19592.971457855533	394
5	15329	19603.46972939587	393
5	15398	19682.700024167506	392
5	15402	19698.968283998886	391
5	15437	19754.239953224471	390
5	15446	19789.153913190887	389
5	15483	19823.970796000089	388
5	15492	19846.007892288424	387
5	15531	19898.36707680315	386
5	15564	19920.312251492251	385
5	15575	19972.034931475845	384
5	15584	19979.417319794256	383
5	15644	20049.651078569865	382
5	15648	20051.029976486132	381
5	15656	20099.208809259282	380
5	15697	20131.926067321478	379
5	15733	20173.682516152531	378
5	15737	20189.35713707607	377
5	15750	20214.87962851246	376
5	15791	20271.729258825029	375
5	15795	20276.901185933393	374
5	15837	20331.52175881134	373
5	15846	20337.801403780391	372
5	15885	20396.109073968794	371
5	15913	20416.249668694826	370
5	15951	20475.302513380324	369
5	15955	20485.706332859777	368
5	15994	20561.294831245378	367
5	16029	20586.131285529764	366
5	16045	20627.432835312905	365
5	16070	20656.340396755102	364
5	16109	20703.519123790979	363
5	16113	20723.326507053247	362
5	16153	20784.055985510813	361
5	16157	20786.975781333126	360
5	16201	20841.63045307902	359
5	16210	20867.72523324654	358
5	16247	20914.500863596085	357
5	16251	20933.355678778898	356
5	16292	20990.512483938648	355
5	16320	21031.273312986769	354
5	16354	21073.741024631881	353
5	16384	21125.407003524682	352
5	16388	21127.011538195604	351
5	16437	21192.532625970015	350
5	16441	21202.800656059592	349
5	16477	21265.061019872362	348
5	16481	21276.634307813431	347
5	16522	21338.942486463991	346
5	16526	21341.960051671619	345
5	16567	21418.750149250807	344
5	16598	21429.422108082456	343
5	16633	21501.30534384666	342
5	16642	21505.285466162863	341
5	16686	21578.870842780125	340
5	16690	21584.137911374616	339
5	16732	21649.309427954416	338
5	16736	21657.732060417215	337
5	16774	21705.797529869326	336
5	16778	21719.683085127278	335
5	16821	21776.387555083842	334
5	16862	21824.681456960735	333
5	16889	21852.403368086075	332
5	16928	21903.815872538851	331
5	16939	21946.421422978123	330
5	16948	21959.646488630311	329
5	17015	22022.677764927675	328
5	17019	22048.188658989002	327
5	17055	22081.574096781605	326
5	17066	22120.636079481553	325
5	17094	22153.122524837551	324
5	17105	22193.32808942314	323
5	17134	22212.584061016648	322
5	17175	22266.018111489258	321
5	17179	22266.817646796883	320
5	17224	22338.637041826496	319
5	17228	22338.683506853727	318
5	17267	22401.0313156367	317
5	17276	22423.307117622944	316
5	17312	22473.155455216107	315
5	17321	22487.052450216479	314
5	17360	22528.499779155814	313
5	17369	22559.144963116408	312
5	17411	22609.16644268911	311
5	17441	22646.146085267639	310
5	17483	22717.910183728579	309
5	17487	22719.502852413954	308
5	17524	22780.233351662766	307
5	17528	22792.842424326491	306
5	17571	22855.639441396025	305
5	17604	22865.236438742945	304
5	17645	22927.950736992401	303
5	17649	22934.308458420475	302
5	17690	23011.025603494076	301
5	17694	23012.550897096818	300
5	17739	23066.750599329877	299
5	17745	23084.066189341533	298
5	17779	23105.257722585229	297
5	17820	23161.961210096315	296
5	17826	23193.388714534197	295
5	17865	23250.59007516488	294
5	17897	23287.505563831451	293
5	17908	23337.457042511089	292
5	17939	23348.580704753516	291
5	17981	23414.707127048754	290
5	17985	23425.484736719644	289
5	18027	23490.335775201549	288
5	18031	23509.336455183065	287
5	18077	23569.671554615362	286
5	18104	23580.186092982285	285
5	18122	23639.65958437421	284
5	18151	23653.343597585626	283
5	18193	23714.391434069446	282
5	18197	23724.575592514536	281
5	18236	23790.502242579502	280
5	18240	23792.054230560134	279
5	18307	23880.192802072455	278
5	18311	23884.306667540752	277
5	18324	23935.07711641734	276
5	18356	23968.894617175313	275
5	18396	24038.685323970558	274
5	18426	24064.729660683807	273
5	18439	24100.872549456279	272
5	18478	24137.854194073779	271
5	18484	24174.553814876704	270
5	18516	24223.466228718175	269
5	18555	24247.679949349293	268
5	18592	24305.603970770105	267
5	18598	24333.951783560596	266
5	18640	24381.15499690231	265
5	18646	24414.38484502359	264
5	18678	24452.232264700781	263
5	18684	24475.258644161001	262
5	18753	24540.594271901151	261
5	18757	24562.685204696513	260
5	18794	24604.794626771247	259
5	18805	24639.897393519393	258
5	18839	24671.468956052924	257
5	18857	24717.592367205193	256
5	18884	24730.978072026693	255
5	18897	24779.93254315149	254
5	18929	24793.687683972716	253
5	18945	24834.182449820033	252
5	18977	24857.753781752772	251
5	19018	24902.241140382319	250
5	19024	24938.296714337756	249
5	19060	24964.765278467335	248
5	19071	25013.617440255018	247
5	19103	25028.159937791393	246
5	19147	25081.532828317034	245
5	19151	25106.789800071197	244
5	19190	25151.529657086187	243
5	19196	25167.058222369385	242
5	19231	25250.159788348373	241
5	19235	25255.592619176126	240
5	19273	25307.375738488687	239
5	19307	25353.385799595919	238
5	19349	25418.387777554253	237
5	19353	25439.825843150135	236
5	19391	25489.460282723926	235
5	19425	25518.655574368779	234
5	19436	25556.700434483944	233
5	19470	25589.207687328505	232
5	19481	25618.350512499588	231
5	19522	25678.176877553228	230
5	19554	25728.961616048448	229
5	19588	25745.919537564606	228
5	19596	25777.088092365591	227
5	19637	25816.998554802632	226
5	19646	25841.250910589941	225
5	19652	25857.146410843265	224
5	19695	25914.03995132604	223
5	19734	25966.8813439515	222
5	19766	26008.7520611429	221
5	19802	26057.666241254613	220
5	19811	26085.755243378057	219
5	19845	26117.276643672382	218
5	19888	26173.362399447713	217
5	19892	26182.866982854571	216
5	19928	26226.497286791994	215
5	19932	26238.051776326354	214
5	19981	26288.0858204401	213
5	19985	26297.860420872426	212
5	20028	26371.863648341376	211
5	20032	26384.967670378379	210
5	20073	26457.340827676999	209
5	20077	26458.795040961179	208
5	20145	26526.686873357715	207
5	20149	26555.319607998873	206
5	20189	26598.85820454732	205
5	20200	26638.438954394166	204
5	20241	26679.292818350005	203
5	20269	26710.709983056953	202
5	20280	26741.352389365484	201
5	20324	26784.076851726087	200
5	20328	26811.898320371546	199
5	20368	26859.488976811127	198
5	20377	26871.544446796233	197
5	20416	26935.699608915706	196
5	20446	26945.995319049107	195
5	20491	27030.249027718242	194
5	20497	27045.86758373411	193
5	20567	27123.974348677042	192
5	20571	27136.52478397986	191
5	20607	27195.399739046009	190
5	20618	27207.364000685223	189
5	20654	27260.092603843105	188
5	20663	27290.79688421112	187
5	20701	27335.482701025274	186
5	20738	27365.984309078714	185
5	20777	27431.847614269311	184
5	20781	27438.360242230565	183
5	20820	27504.128954499699	182
5	20824	27508.315935253534	181
5	20870	27583.080607508856	180
5	20874	27590.706086482346	179
5	20942	27665.593765829549	178
5	20946	27668.033551439798	177
5	20991	27748.276387640858	176
5	20995	27758.742600235852	175
5	21036	27823.558648881869	174
5	21063	27841.720448890654	173
5	21076	27897.393908015602	172
5	21106	27903.743436862781	171
5	21151	27975.262616401405	170
5	21155	27976.395713467698	169
5	21198	28044.894306982625	168
5	21202	28049.252992760237	167
5	21243	28116.248279223046	166
5	21247	28131.204720913181	165
5	21290	28188.744418579725	164
5	21294	28195.262551106321	163
5	21333	28254.887461775264	162
5	21368	28278.976735349375	161
5	21409	28334.246454600875	160
5	21413	28349.039459390973	159
5	21452	28405.184517205906	158
5	21456	28405.898261484438	157
5	21494	28457.955797222919	156
5	21503	28482.487748433187	155
5	21542	28528.708805226606	154
5	21546	28545.876247050053	153
5	21585	28587.695662430959	152
5	21620	28636.159555223413	151
5	21629	28649.523800629976	150
5	21668	28694.510234280409	149
5	21672	28697.322632630239	148
5	21714	28753.363729048257	147
5	21723	28777.556505200292	146
5	21766	28836.495247003697	145
5	21770	28849.553521885931	144
5	21799	28880.874346283027	143
5	21848	28943.874447184364	142
5	21852	28955.62924594244	141
5	21896	29017.797766641112	140
5	21900	29026.222274747749	139
5	21941	29096.504820525692	138
5	21945	29097.702994213151	137
5	21986	29159.032071731635	136
5	22015	29176.42876380163	135
5	22060	29252.218598859487	134
5	22064	29265.30112376518	133
5	22110	29319.455419413432	132
5	22114	29334.583455552645	131
5	22150	29391.668984397368	130
5	22186	29418.713477595755	129
5	22197	29449.133643810438	128
5	22262	29526.194761212899	127
5	22266	29529.713998985685	126
5	22302	29592.876120606649	125
5	22311	29597.289883328676	124
5	22349	29662.605414162896	123
5	22360	29689.700835106145	122
5	22400	29748.77944424389	121
5	22404	29755.321218922774	120
5	22468	29828.527173350127	119
5	22472	29854.18088491515	118
5	22509	29918.040781491725	117
5	22518	29928.662901492241	116
5	22561	29997.399122298431	115
5	22588	30002.276653907465	114
5	22629	30068.106749911722	113
5	22635	30080.799640381025	112
5	22669	30139.475999906823	111
[...]
11	21425	28380	6
11	21451	28401.132427379424	7
11	21466	28438.112539001612	8
11	21473	28440	7
11	21492	28440	8
11	21502	28459.681213091982	9
11	21515	28500	8
11	21554	28560	7
11	21568	28560	8
11	21571	28560	9
11	21573	28560	10
11	21598	28620	9
11	21613	28620	10
11	21641	28680	9
11	21657	28680	10
11	21689	28740	9
11	21735	28800	8
11	21778	28860	7
11	21795	28860	8
11	21821	28920	7
11	21864	28980	6
11	21908	29040	5
11	21935	29067.237884003484	6
11	21953	29100	5
11	21969	29100	6
11	21985	29152.980701056295	7
11	21994	29160	6
11	22011	29160	7
11	22032	29220	6
11	22048	29220	7
11	22074	29280	6
11	22092	29280	7
11	22122	29340	6
11	22138	29340	7
11	22158	29400	6
11	22205	29460	5
11	22221	29460	6
11	22224	29460	7
11	22241	29520	6
11	22258	29520	7
11	22278	29573.407181633885	8
11	22283	29580	7
11	22323	29640	6
11	22339	29640	7
11	22343	29640	8
11	22368	29700	7
11	22385	29700	8
11	22412	29760	7
11	22451	29820	6
11	22482	29880	5
11	22496	29880	6
11	22500	29880	7
11	22506	29881.17094066724	8
11	22528	29940	7
11	22544	29940	8
11	22569	30000	7
11	22585	30000	8
11	22587	30000	9
11	22600	30042.854492577447	10
11	22605	30060	9
11	22618	30060	10
11	22648	30120	9
11	22662	30120	10
11	22688	30180	9
11	22736	30240	8
11	22778	30300	7
11	22821	30360	6
11	22840	30360	7
11	22858	30420	6
11	22873	30420	7
11	22900	30474.592986745947	8
11	22905	30480	7
11	22943	30540	6
11	22982	30600	5
11	23000	30600	6
11	23007	30615.024805236398	7
11	23023	30660	6
11	23036	30660	7
11	23040	30660	8
11	23048	30665.000471561916	9
11	23063	30720	8
11	23081	30720	9
11	23099	30743.333407255212	10
11	23110	30780	9
11	23135	30785.517332740812	10
11	23157	30840	9
11	23198	30900	8
11	23239	30960	7
11	23271	30994.128459691919	8
11	23282	31020	7
11	23296	31020	8
11	23300	31020	9
11	23313	31054.933655017969	10
11	23326	31080	9
11	23368	31140	8
11	23406	31200	7
11	23422	31200	8
11	23425	31200	9
11	23452	31260	8
11	23467	31260	9
11	23477	31272.378254075115	10
11	23497	31320	9
11	23515	31320	10
11	23543	31380	9
11	23579	31440	8
11	23592	31440	9
11	23596	31440	10
11	23617	31500	9
11	23665	31560	8
11	23682	31560	9
11	23709	31620	8
11	23725	31620	9
11	23729	31620	10
11	23752	31680	9
11	23767	31680	10
11	23789	31740	9
11	23805	31740	10
11	23832	31800	9
11	23845	31800	10
11	23871	31860	9
11	23918	31920	8
11	23933	31920	9
11	23938	31920	10
11	23957	31980	9
11	24005	32040	8
11	24052	32100	7
11	24076	32100	8
11	24089	32139.110438483962	9
11	24101	32160	8
11	24116	32160	9
11	24120	32160	10
11	24136	32220	9
11	24151	32220	10
11	24181	32280	9
11	24199	32280	10
11	24219	32340	9
11	24234	32340	10
11	24261	32400	9
11	24275	32400	10
11	24301	32460	9
11	24315	32460	10
11	24342	32520	9
11	24369	32546.639635603909	10
11	24376	32580	9
11	24391	32580	10
11	24408	32640	9
11	24450	32700	8
11	24495	32760	7
11	24509	32760	8
11	24527	32820	7
11	24569	32880	6
11	24583	32880	7
11	24600	32911.682454356659	8
11	24609	32931.682454356659	9
11	24618	32940	8
11	24629	32940	9
11	24646	33000	8
11	24661	33000	9
11	24691	33060	8
11	24709	33060	9
11	24733	33120	8
11	24776	33166.317909860844	9
11	24781	33180	8
11	24798	33180	9
11	24818	33225.763485246823	10
11	24827	33240	9
11	24867	33300	8
11	24908	33360	7
11	24949	33420	6
11	24992	33480	5
11	25036	33540	4
11	25085	33600	3
11	25113	33644.783104490495	4
11	25118	33660	3
11	25133	33660	4
11	25158	33720	3
11	25172	33720	4
11	25177	33720	5
11	25196	33780	4
11	25237	33840	3
11	25251	33840	4
11	25280	33900	3
11	25302	33900	4
11	25325	33960	3
11	25345	33960	4
11	25371	34020	3
11	25385	34020	4
11	25390	34020	5
11	25416	34080	4
11	25449	34140	3
11	25465	34140	4
11	25497	34200	3
11	25516	34200	4
11	25522	34203.731374169834	5
11	25536	34260	4
11	25551	34260	5
11	25566	34294.247803105365	6
11	25574	34320	5
11	25602	34380	4
11	25620	34380	5
11	25623	34380	6
11	25628	34440	5
11	25644	34440	6
11	25651	34500	5
11	25666	34500	6
11	25668	34500	7
11	25670	34500	8
11	25675	34560	7
11	25689	34560	8
11	25698	34620	7
11	25724	34680	6
11	25745	34680	7
11	25750	34740	6
11	25772	34800	5
11	25792	34800	6
11	25798	34860	5
11	25824	34920	4
11	25850	34980	3
11	25869	34980	4
11	25876	35040	3
11	25899	35100	2
11	25924	35160	1
11	25947	35220	0
11	25962	35220	1
11	25965	35220	2
11	25970	35280	1
11	25997	35340	0
11	26055	35460	1
11	26062	35520	0
11	26072	35520	1
11	26074	35520	2
11	26079	35580	1
11	26091	35580	2
11	26095	35580	3
11	26101	35640	2
11	26112	35640	3
11	26115	35640	4
11	26121	35700	3
11	26142	35760	2
11	26166	35820	1
11	26180	35820	2
11	26184	35820	3
11	26189	35880	2
11	26208	35880	3
11	26215	35940	2
11	26238	36000	1
11	26251	36000	2
11	26257	36060	1
11	26273	36060	2
11	26278	36120	1
11	26299	36180	0
11	26316	36180	1
11	26324	36240	0
11	26507	36780	1
11	26513	36840	0
11	26528	36840	1
11	26534	36900	0
11	26544	36900	1
11	26549	36960	0
11	26584	37020	1
11	26590	37080	0
11	26599	37080	1
11	26605	37140	0
11	26660	37260	1
11	26663	37260	2
11	26669	37320	1
11	26678	37320	2
11	26684	37380	1
11	26697	37380	2
11	26704	37440	1
11	26721	37500	0
11	26732	37500	1
11	26738	37560	0
11	26746	37560	1
11	26748	37560	2
11	26750	37560	3
11	26755	37620	2
11	26769	37620	3
11	26775	37680	2
11	26784	37740	1
11	26794	37740	2
11	26799	37800	1
11	26806	37800	2
11	26813	37860	1
11	26826	37920	0
11	26832	37920	1
11	26837	37980	0
11	26848	37980	1
11	26855	38040	0
11	26975	38580	1
11	26980	38640	0
12	0	0	0
12	425	736.749037989541	1
12	427	738.873047429344	0
12	13006	16493.217306508439	1
12	13008	16493.745377026227	0
12	14433	18314.146829492321	1
12	14435	18317.687687354782	0
13	0	0	0
13	6453	8189.233026109712	1
13	6455	8189.756298113759	0
13	9237	11695.119598823552	1
13	9266	11702.75353413471	0
13	13325	16881.874707247709	1
13	13327	16885.036139209699	0
13	14392	18263.792521283946	1
13	14394	18264.830693801331	0
14	63	180	180
14	91	240	224.08250990868
14	128	300	246.89042566719
14	321	600	531.14640286755
14	359	660	449.49992323003
14	455	780	512.83483754433
14	603	960	489.77035903729
14	840	1260	587.38591318655
14	886	1320	1030.1160587101
14	1067	1560	1236.8482260957
14	1069	1560	778.15142368612
14	1107	1620	1270.1424224032
14	1109	1620	1141.1244447629
14	1375	1920	1482.2577655589
14	1376	1920	1041.7532460465
14	1477	2040	1355.9163886419
14	1478	2040	1852.2153939187
14	1572	2160	1237.3231080771
14	1629	2220	1234.2296280628
14	1737	2340	1496.5788743587
14	1878	2520	1380.3909963852
14	1971	2640	2146.0596876383
14	1973	2640	2450.3921733962
14	2223	2940	2833.5671217835
14	2263	3000	2398.8576806334
14	2406	3180	2737.5336314372
14	2497	3300	1666.1174931363
14	2548	3360	1904.3428844125
14	2749	3600	1899.4793092548
14	2850	3720	2437.4928255596
14	2889	3780	2621.2716679067
14	2939	3840	2055.1813534184
14	2986	3900	2812.8742756988
14	3082	4020	2185.8890543984
14	3130	4080	2990.7766389868
14	3131	4080	3646.0062868792
14	3186	4140	2483.3363401229
14	3188	4140	3144.556914331
14	3399	4380	3559.2315571982
14	3486	4500	3056.9022829609
14	3489	4500	3299.9716158511
14	3677	4740	2899.1259601015
14	3678	4740	4373.3357282909
14	3778	4860	4369.5779585468
14	3878	4980	3227.2179814086
14	4019	5160	3055.7683048967
14	4124	5280	3086.2681271124
14	4364	5580	3491.3387724709
14	4366	5580	3288.9689160902
14	4367	5580	3571.6432161036
14	4611	5880	3199.1521508622
14	4657	5940	3425.8453417202
14	4660	5940	4653.0300413976
14	4661	5940	5220.4211673514
14	4746	6060	5087.1117222293
14	4844	6180	3481.8742004307
14	4847	6180	4649.408992136
14	4899	6240	5480.3563569012
14	4936	6300	4378.6631073558
14	5030	6420	3668.2560486554
14	5126	6540	4481.0873675577
14	5169	6600	3725.4407247058
14	5225	6660	4325.2606645926
14	5271	6720	3819.6768769135
14	5371	6840	4224.3084257027
14	5415	6900	4183.0841607134
14	5418	6900	4377.9037227198
14	5550	7080	3883.8240748106
14	5551	7080	3894.6321287626
14	5588	7140	6279.6850634623
14	5803	7380	4495.8564708161
14	5805	7380	4001.801532749
14	5890	7500	4803.9728553773
14	5985	7620	5094.4038217554
14	6192	7860	5756.0492367215
14	6285	7980	6653.3809083738
14	6286	7980	4361.4645868631
14	6387	8100	6209.3305769761
14	6531	8280	4593.1862410786
14	6567	8340	5978.9578572378
14	6904	8760	5240.788626894
14	7120	9000	5466.8170067724
14	7121	9000	5170.5352789134
14	7203	9120	5192.1941108546
14	7295	9240	7143.2351148241
14	7383	9360	5130.791315838
14	7589	9600	9345.6690209979
14	7649	9660	5561.0645210153
14	7696	9720	5371.0163373088
14	7922	10020	5647.7854077948
14	8020	10140	6715.4510114977
14	8120	10260	7792.7227345362
14	8164	10320	5687.6455966784
14	8271	10440	6548.7349080571
14	8320	10500	6443.7289464683
14	8321	10500	8082.3592695665
14	8356	10560	6167.4607549351
14	8408	10620	5759.8716854486
14	8589	10860	5981.1070572585
14	8686	10980	5770.5300057395
14	8775	11100	5835.6609844082
14	8872	11220	6030.4909575669
14	8875	11220	6948.8780231967
14	8923	11280	7086.9516627838
14	9111	11520	7163.1826465111
14	9112	11520	6151.0023589669
14	9359	11820	6317.2810344374
14	9559	12060	7037.5714120402
14	9607	12120	6780.3215509296
14	9692	12240	6989.0369580916
14	9693	12240	7127.0053025028
14	9747	12300	7794.0228184542
14	9787	12360	11664.004957893
14	9830	12420	7711.7672105833
14	9923	12540	9788.5706311309
14	9925	12540	6759.8388016778
14	9969	12600	10343.522583941
14	10073	12720	7340.1729090937
14	10115	12780	9705.2788645782
14	10164	12840	6898.3123286405
14	10267	12960	8869.9945508003
14	10268	12960	8397.7164145914
14	10356	13080	7513.0570619772
14	10405	13140	8820.8406056252
14	10493	13260	7994.3477207046
14	10637	13440	7193.9353251612
14	10685	13500	7753.2958545938
14	10732	13560	7320.5085663146
14	10771	13620	8018.4509342349
14	10876	13740	7550.1800642788
14	10971	13860	7644.3650611091
14	11211	14160	7857.9448697919
14	11316	14280	7637.3072085974
14	11318	14280	9673.8816837057
14	11352	14340	7700.2283851075
14	11402	14400	11385.578230022
14	11448	14460	7967.853438434
14	11450	14460	8018.4360672333
14	11451	14460	7724.797298948
14	11537	14580	8022.5271501513
14	11587	14640	7882.309067326
14	11628	14700	8786.9374468459
14	11630	14700	9080.7465973419
14	11685	14760	10491.373773644
14	11997	15180	11031.427319099
14	12001	15180	8033.7687449146
14	12089	15300	8009.7091761443
14	12093	15300	8142.2345658127
14	12227	15480	8447.7619458762
14	12283	15540	9111.5033365776
14	12342	15600	12678.880930503
14	12385	15660	9580.7018340578
14	12474	15780	8481.6864691531
14	12519	15840	8764.5016818951
14	12620	15960	9946.0483721538
14	12622	15960	8574.8772730534
14	12664	16020	8359.6059312128
14	12709	16080	10152.369167338
14	12750	16140	8705.628967753
14	12833	16260	9043.5690700527
14	12834	16260	9940.0608699876
14	12882	16320	9589.2484116876
14	12929	16380	9676.6535682359
14	12976	16440	9876.941392111
14	12977	16440	12992.630144813
14	13023	16500	8812.2996997265
14	13064	16560	9795.8549106021
14	13066	16560	11604.268731189
14	13106	16620	9609.7108946957
14	13110	16620	8691.9294848655
14	13154	16680	9722.9034584687
14	13208	16740	8856.2624219649
14	13211	16740	11356.375073944
14	13248	16800	9474.5108890954
14	13298	16860	10838.030847881
14	13357	16920	9153.9243318061
14	13455	17040	9467.6624516421
14	13456	17040	9237.7522469258
14	13490	17100	10923.86844311
14	13580	17220	10623.058126609
14	13629	17280	9009.2319349229
14	13673	17340	8933.9562275418
14	13715	17400	9288.470138161
14	13716	17400	9899.8338605172
14	13760	17460	11233.686737251
14	13821	17520	8918.7436878729
14	13822	17520	9545.5067242144
14	13823	17520	10489.042816238
14	13868	17580	9168.1365251246
14	13869	17580	9516.3495541938
14	13870	17580	9843.6385871591
14	13912	17640	9676.1155213537
14	14211	18000	9383.4944823446
14	14213	18000	11397.860487567
14	14214	18000	11107.632549718
14	14290	18120	10928.746990156
14	14328	18180	9306.4303881493
14	14368	18240	11073.378767372
14	14414	18300	9411.9118683572
14	14459	18360	9471.2987091096
14	14505	18420	10444.21192432
14	14590	18540	10073.32958845
14	14625	18600	10599.747119873
14	14670	18660	9467.3622762885
14	14756	18780	9387.6148680892
14	14794	18840	10808.548751717
14	14833	18900	10254.257336013
14	14927	19020	10120.051220771
14	14967	19080	14998.168903885
14	15093	19260	11935.938241308
14	15138	19320	9929.7526360269
14	15139	19320	9799.7892662262
14	15421	19740	11462.320700189
14	15424	19740	11326.077918839
14	15466	19800	10387.87721288
14	15508	19860	14564.919008711
14	15509	19860	10182.63467703
14	15600	19980	10826.736324356
14	15631	20040	10230.7873448
14	15632	20040	11102.146159612
14	15634	20040	10574.254859817
14	15764	20220	11488.377968513
14	15818	20280	10648.061075907
14	15899	20400	12452.339683241
14	15900	20400	11604.318667468
14	15901	20400	10405.25699111
14	15936	20460	11121.985336464
14	15937	20460	10599.466999956
14	15940	20460	10753.072547215
14	16017	20580	11079.202955849
14	16058	20640	10594.807814618
14	16226	20880	10522.833979993
14	16228	20880	10944.784791777
14	16230	20880	13310.575651605
14	16267	20940	11873.817233865
14	16306	21000	11417.917432287
14	16307	21000	11513.665482122
14	16341	21060	10684.917244107
14	16376	21120	11900.386749981
14	16377	21120	13320.964519085
14	16379	21120	11388.311038516
14	16416	21180	10800.908615518
14	16458	21240	10793.190976265
14	16460	21240	10745.094333315
14	16500	21300	12587.400898785
14	16546	21360	11742.991086008
14	16616	21480	10700.520849557
14	16620	21480	11955.89485251
14	16709	21600	10656.157209604
14	16878	21840	11922.435979833
14	16880	21840	11693.690858642
14	17004	22020	11841.119291707
14	17043	22080	13166.092315612
14	17087	22140	12003.553424038
14	17088	22140	11196.361548763
14	17089	22140	11572.921361136
14	17124	22200	11039.849353296
14	17158	22260	11436.673004739
14	17208	22320	11136.534608885
14	17211	22320	11518.482390022
14	17292	22440	11227.034033531
14	17384	22560	11977.12797601
14	17429	22620	11944.137156612
14	17505	22740	11884.184473794
14	17590	22860	13214.438867534
14	17636	22920	13049.830599051
14	17675	22980	13036.210162278
14	17811	23160	11876.505634634
14	17849	23220	11459.195119833
14	17924	23340	11773.756374812
14	17925	23340	13139.965252002
14	17966	23400	11991.539251708
14	18003	23460	11593.66470453
14	18094	23580	12047.074607294
14	18174	23700	12892.88395724
14	18214	23760	13061.612026309
14	18215	23760	13531.140171981
14	18295	23880	12701.970062778
14	18338	23940	11968.857301151
14	18339	23940	12687.936435877
14	18381	24000	12023.074401863
14	18464	24120	13940.5290501
14	18503	24180	12189.409389066
14	18507	24180	12724.650763874
14	18576	24300	13917.343690199
14	18577	24300	12506.359392875
14	18621	24360	12710.513395116
14	18660	24420	15631.088428686
14	18704	24480	15125.86729298
14	18742	24540	12564.1529093
14	18784	24600	14321.734134349
14	18874	24720	12233.337799622
14	18912	24780	14060.701291646
14	18913	24780	13160.893727585
14	19086	25020	12484.581664266
14	19176	25140	13270.287544153
14	19178	25140	13374.98371713
14	19216	25200	12830.551598667
14	19217	25200	12536.17458789
14	19218	25200	13306.622215021
14	19291	25320	13334.536755228
14	19368	25440	14655.51337621
14	19414	25500	12695.001361868
14	19454	25560	13664.244925282
14	19495	25620	13325.393987945
14	19499	25620	16220.332568378
14	19668	25860	16786.585744871
14	19709	25920	12717.292423063
14	19829	26100	14252.259868059
14	19911	26220	13716.082151524
14	20051	26400	13154.186636474
14	20052	26400	15263.40905131
14	20091	26460	13924.706119061
14	20257	26700	13357.733864145
14	20259	26700	13975.786291754
14	20396	26880	13916.308280455
14	20397	26880	14877.30060827
14	20591	27180	13838.491663913
14	20764	27420	14168.319605139
14	20846	27540	14712.879132087
14	20890	27600	13752.546008472
14	20925	27660	13638.830745603
14	21013	27780	15051.033378204
14	21052	27840	13763.146942234
14	21091	27900	14470.823897965
14	21094	27900	14993.378997196
14	21223	28080	14727.225993235
14	21353	28260	14628.47694411
14	21433	28380	14699.651053005
14	21435	28380	14672.597922888
14	21483	28440	14020.004114738
14	21521	28500	14841.681411043
14	21524	28500	15245.391249183
14	21604	28620	16234.448365936
14	21695	28740	14930.864667893
14	21745	28800	15517.737184053
14	21785	28860	14281.865148765
14	21787	28860	15478.491334727
14	21915	29040	15343.11743588
14	21959	29100	14378.137194277
14	22132	29340	16554.175852889
14	22211	29460	14295.379814889
14	22291	29580	15510.98346242
14	22378	29700	15212.266054283
14	22459	29820	14330.822457112
14	22460	29820	14357.655931332
14	22489	29880	15000.227929791
14	22577	30000	17352.264498218
14	22613	30060	15791.905973448
14	22656	30120	14567.197690485
14	22745	30240	15612.511559953
14	22785	30300	17386.162331044
14	22951	30540	18039.575408733
14	22991	30600	15878.453199908
14	23163	30840	16586.744019802
14	23248	30960	15371.668619138
14	23249	30960	14985.788913554
14	23292	31020	18409.999776003
14	23336	31080	15033.955852194
14	23376	31140	15649.920106738
14	23377	31140	15506.899676187
14	23413	31200	14918.160038984
14	23552	31380	17089.602102652
14	23585	31440	15875.69582139
14	23624	31500	15545.96131906
14	23627	31500	15199.631857391
14	23759	31680	15024.76447236
14	23762	31680	15351.104340776
14	23796	31740	15053.448046166
14	23838	31800	15406.656294158
14	23842	31800	16596.711487617
14	23967	31980	15899.121213789
14	24111	32160	16553.220702762
14	24146	32220	16623.385007066
14	24225	32340	16484.917794667
14	24228	32340	15998.591138723
14	24229	32340	19272.377200578
14	24269	32400	15588.434505727
14	24349	32520	16899.32592904
14	24352	32520	19050.214134581
14	24460	32700	15734.319520282
14	24501	32760	18064.20692379
14	24504	32760	15752.883817914
14	24505	32760	17779.009723695
14	24533	32820	15815.364838167
14	24537	32820	16961.226335655
14	24579	32880	18513.097579484
14	24625	32940	16221.304400624
14	24654	33000	15820.168138724
14	24790	33180	17007.85647222
14	24835	33240	16391.117169728
14	24837	33240	18495.343271353
14	24874	33300	15807.136522795
14	24877	33300	17157.043265092
14	25000	33480	16818.824870611
14	25046	33540	17602.31391083
14	25091	33600	16732.208683382
14	25095	33600	16558.039894058
14	25128	33660	20741.194643031
14	25204	33780	16227.199780251
14	25206	33780	16971.671098814
14	25244	33840	17481.277202154
14	25335	33960	17174.404403689
14	25426	34080	16612.597801234
14	25546	34260	16851.05875751
14	25582	34320	16940.977232226
14	25583	34320	16540.882772795
14	25638	34440	18801.448639927
14	25659	34500	16576.191862306
14	25681	34560	18390.624943335
14	25756	34740	17241.841531912
14	25760	34740	17392.762693339
14	25885	35040	17344.500763469
14	25930	35160	19606.287078595
14	25953	35220	17413.319690333
14	26029	35400	18497.124545062
14	26051	35460	17894.692918821
14	26109	35640	19567.83067448
14	26152	35760	17807.800409644
14	26176	35820	18288.880609268
14	26222	35940	17947.031634294
14	26246	36000	21168.548658201
14	26264	36060	18157.135209571
14	26266	36060	20666.611826501
14	26286	36120	18248.455940812
14	26287	36120	18671.027662146
14	26329	36240	18629.481090145
14	26374	36360	18405.663885216
14	26413	36480	18499.173014976
14	26449	36600	23702.208220043
14	26483	36720	21159.981497294
14	26484	36720	18963.725562291
14	26499	36780	19419.766580104
14	26540	36900	19216.889689737
14	26596	37080	19289.288525163
14	26654	37260	20244.852915637
14	26674	37320	20009.724237483
14	26689	37380	20101.843680676
14	26760	37620	20715.925799412
14	26790	37740	20475.451569988
14	26830	37920	20064.558322994
14	26950	38460	20508.245689591
14	26984	38640	21040.814786882
14	26993	38700	21153.696265044
14	27028	39000	21214.734433399

