version 2
run General-0-20190508-15:36:45-4144
attr configname General
attr datetime 20190508-15:36:45
attr experiment General
attr inifile omnetpp.ini
attr iterationvars ""
attr iterationvarsf ""
attr measurement ""
attr network AmusementAlt1
attr processid 4144
attr repetition 0
attr replication #0
attr resultdir results
attr runnumber 0
attr seedset 0
param **.Source.interArrivalTime exponential(20s)
param **.TicketBooth2.serviceTime "truncnormal(75s, 15s)"
param **.TicketBooth3.serviceTime "truncnormal(75s, 15s)"
param **.SecurityBooth2.serviceTime "truncnormal(30s, 10s)"
param **.SecurityBooth3.serviceTime "truncnormal(30s, 10s)"
param **.Source.numJobs 1500
param **.Source.startTime 0s
param **.Source.stopTime 18000s

vector 0 AmusementAlt1.TicketQueue queueLength:vector ETV
attr interpolationmode sample-hold
attr title "queue length, vector"
vector 1 AmusementAlt1.SecurityQueue1 queueLength:vector ETV
attr interpolationmode sample-hold
attr title "queue length, vector"
vector 2 AmusementAlt1.SecurityQueue2 queueLength:vector ETV
attr interpolationmode sample-hold
attr title "queue length, vector"
vector 3 AmusementAlt1.EnterPark lifeTime:vector ETV
attr interpolationmode none
attr title "lifetime of arrived jobs, vector"
attr unit s
0	0	0	0
0	8	53.109574332809	1
0	10	68.853597132447	2
0	11	70.636816755836	1
0	17	103.706050216828	0
0	22	106.432878216502	1
0	23	134.401887963111	0
0	32	172.731123815068	1
0	33	173.97072417674	0
0	46	207.649054930869	1
0	48	228.541305097031	2
0	50	228.949816865012	3
0	51	230.712280431489	2
0	56	238.134779610116	3
0	62	278.941064768954	4
0	63	292.795622171783	3
0	68	319.758909087188	4
0	69	326.768765017014	3
0	76	332.137498279722	4
0	77	333.0522070623	3
0	84	357.642052324195	4
0	87	389.397374854726	3
0	91	405.235876202092	2
0	98	415.530461883936	3
0	101	439.344708249735	2
0	106	442.236265576415	3
0	108	442.615636960437	4
0	110	450.451053173971	5
0	112	469.678671955286	6
0	114	472.921401744205	7
0	117	478.683935153298	6
0	122	491.861335287704	7
0	123	517.798639467269	6
0	130	538.439602771988	7
0	133	545.790961960589	6
0	138	549.930250906813	7
0	139	571.211389896174	6
0	147	610.335790845548	5
0	152	619.934524595905	6
0	154	627.513763881558	7
0	155	633.497924261494	6
0	162	646.234995076986	7
0	164	657.781481293116	8
0	168	677.898901396447	9
0	169	678.856716092378	8
0	173	702.018683797314	7
0	182	766.988838319968	8
0	183	784.23412172917	7
0	188	784.427155392483	8
0	189	788.282427936675	7
0	194	790.032695562063	8
0	198	812.496061592729	9
0	202	833.857505535719	10
0	204	841.488622403203	11
0	206	844.462867788245	12
0	207	849.389319602134	11
0	214	874.595574453695	12
0	215	874.63114749252	11
0	220	909.002207608026	12
0	224	931.398494923105	13
0	226	933.419190429284	14
0	227	933.819807293989	13
0	231	951.663503608357	12
0	240	1004.890957876172	13
0	242	1031.775863319219	14
0	244	1032.179665882142	15
0	246	1032.979191863308	16
0	247	1038.440310269632	15
0	252	1044.636759640647	16
0	254	1051.660281428273	17
0	256	1064.773207115546	18
0	259	1065.312566920698	17
0	264	1067.300979844052	18
0	268	1117.379215505756	19
0	270	1118.7051635354	20
0	272	1123.593072497036	21
0	273	1125.570326691348	20
0	277	1130.819392850152	19
0	282	1147.17686303834	20
0	287	1182.881569722686	19
0	291	1188.119651094899	18
0	296	1197.982953197514	19
0	298	1200.809567468729	20
0	302	1221.645180552318	21
0	306	1246.843856754497	22
0	307	1274.911053926294	21
0	311	1276.234765547112	20
0	316	1283.669506184238	21
0	322	1318.984327632499	22
0	324	1328.218945553389	23
0	326	1328.313076363236	24
0	328	1331.479906487847	25
0	329	1332.387544612884	24
0	333	1348.765100737846	23
0	338	1354.132589327297	24
0	344	1382.353077513185	25
0	346	1399.520936869764	26
0	347	1404.945352826246	25
0	352	1409.60781300152	26
0	354	1414.656212859342	27
0	357	1435.793107129666	26
0	364	1459.086350828825	27
0	365	1495.024959119143	26
0	369	1495.896754491781	25
0	374	1496.555548425968	26
0	378	1519.061188762843	27
0	381	1557.045005031143	26
0	386	1561.651176684204	27
0	387	1580.887573537427	26
0	395	1622.123306252699	25
0	400	1628.938585745227	26
0	401	1636.318302065273	25
0	406	1649.594525958135	26
0	412	1662.476620124587	27
0	414	1662.864215751547	28
0	416	1675.566770064164	29
0	417	1679.812142707687	28
0	422	1682.74531438156	29
0	424	1692.418028113348	30
0	425	1697.971804968337	29
0	432	1711.665529228768	30
0	434	1713.836471198665	31
0	436	1720.920953843574	32
0	438	1722.859408935111	33
0	440	1739.737178386928	34
0	443	1742.079927524141	33
0	448	1748.477738662407	34
0	449	1750.482155415478	33
0	454	1769.657926370031	34
0	458	1774.659556269585	35
0	461	1798.079041818803	34
0	465	1802.671504471997	33
0	470	1820.032236123435	34
0	476	1835.43377331436	35
0	478	1859.77416322111	36
0	479	1867.505185998175	35
0	484	1871.655633187586	36
0	488	1896.70778368582	37
0	490	1909.377036040274	38
0	491	1911.249934613973	37
0	495	1948.093409177738	36
0	503	2003.242809050499	35
0	507	2025.262238223205	34
0	514	2044.684846439016	35
0	518	2047.700666642893	36
0	520	2058.158067244661	37
0	522	2058.833802955699	38
0	524	2060.267310641957	39
0	525	2084.698828625937	38
0	531	2110.839803652031	37
0	538	2141.26424741805	38
0	539	2143.475486590918	37
0	545	2208.640575019183	36
0	550	2215.463459256125	37
0	551	2220.170019019355	36
0	560	2243.189286296549	37
0	562	2244.306687354319	38
0	564	2252.586265807772	39
0	566	2257.049049969788	40
0	568	2261.00564011897	41
0	570	2261.379549527389	42
0	572	2265.129928551444	43
0	573	2267.373267468576	42
0	579	2290.266860800658	41
0	584	2296.698182993563	42
0	586	2314.857463540054	43
0	588	2315.50459963296	44
0	591	2345.103343301174	43
0	596	2346.121224158307	44
0	598	2363.339696891921	45
0	600	2387.35911502276	46
0	604	2392.792476429606	47
0	605	2397.679024300085	46
0	609	2411.104409948379	45
0	617	2468.890842041632	44
0	622	2490.375134189476	45
0	625	2498.327994920694	44
0	630	2500.53243664321	45
0	632	2505.469622019186	46
0	636	2563.251133857163	47
0	637	2567.566689923217	46
0	641	2575.915587272753	45
0	646	2580.110709365451	46
0	648	2581.306328623759	47
0	650	2582.467775866078	48
0	652	2593.865727172207	49
0	654	2607.248001646005	50
0	660	2614.721397533894	51
0	661	2619.067239858718	50
0	667	2646.361108680575	49
0	672	2657.294799424524	50
0	674	2658.687152845996	51
0	678	2685.925787332108	52
0	680	2708.676557442921	53
0	681	2712.257104196723	52
0	685	2716.972124607184	51
0	692	2721.701172081273	52
0	694	2726.590992522131	53
0	698	2738.767650796875	54
0	700	2760.525739469162	55
0	701	2779.961703692841	54
0	705	2784.940932653446	53
0	710	2807.904102885902	54
0	714	2817.576870635695	55
0	718	2838.333872145479	56
0	720	2856.083910715153	57
0	721	2862.593424747755	56
0	726	2863.935371278904	57
0	727	2878.542097798085	56
0	732	2905.151796096521	57
0	735	2909.522911250785	56
0	744	2948.467069714014	57
0	745	2951.630733219227	56
0	750	2971.729335382523	57
0	752	2976.942137970052	58
0	753	2980.423380692676	57
0	760	3003.192297829365	58
0	763	3030.337890125074	57
0	767	3054.658016112813	56
0	774	3066.334208657677	57
0	776	3075.707738177215	58
0	779	3087.49527754441	57
0	784	3096.491850908844	58
0	786	3114.167564029502	59
0	789	3135.476885838058	58
0	794	3147.129087492721	59
0	796	3161.699564347408	60
0	799	3166.159534493842	59
0	804	3168.183546617138	60
0	806	3178.269145282168	61
0	808	3190.709883663792	62
0	812	3207.37744847671	63
0	813	3209.927230896908	62
0	820	3244.082716535501	63
0	821	3244.788115208178	62
0	826	3257.473528352723	63
0	828	3258.092054183933	64
0	830	3287.083149712485	65
0	831	3287.597922554441	64
0	838	3314.570010000893	65
0	839	3315.016898862293	64
0	844	3316.312181666062	65
0	846	3317.245936538952	66
0	851	3366.396688656362	65
0	856	3382.61586455541	66
0	857	3383.425128506633	65
0	864	3405.234234139184	66
0	867	3438.707100070846	65
0	872	3458.285404449593	66
0	873	3464.787534931689	65
0	881	3512.721524273118	64
0	887	3536.272376912658	63
0	892	3541.404826360856	64
0	894	3549.659423695393	65
0	898	3554.587740139648	66
0	899	3582.284482526733	65
0	904	3619.766159683341	66
0	905	3620.928890899964	65
0	914	3633.322199724442	66
0	916	3653.231472591775	67
0	917	3659.180907461887	66
0	922	3677.88908185239	67
0	923	3688.258059945347	66
0	929	3703.634790843191	65
0	934	3715.691115814316	66
0	940	3746.012494410817	67
0	941	3755.35592796725	66
0	945	3755.980136944156	65
0	953	3787.273124170292	64
0	960	3826.171487508304	65
0	961	3830.115497819341	64
0	966	3833.243419013564	65
0	968	3838.323646580568	66
0	971	3872.332441628969	65
0	977	3897.200469357451	64
0	982	3917.276311931748	65
0	985	3941.675675852065	64
0	989	3949.841879187355	63
0	994	3964.684063544029	64
0	1000	3994.536706827877	65
0	1002	3999.822116110592	66
0	1003	4019.000133255028	65
0	1007	4038.066332875888	64
0	1012	4051.95355215701	65
0	1018	4081.397635316883	66
0	1020	4088.662479694919	67
0	1021	4090.355558175454	66
0	1026	4091.841143288042	67
0	1028	4114.468718640131	68
0	1032	4136.766467078271	69
0	1033	4137.096696242779	68
0	1040	4170.025782691756	69
0	1042	4186.326149309682	70
0	1043	4192.621983097379	69
0	1047	4201.848683428269	68
0	1052	4221.71854577388	69
0	1054	4222.857876423218	70
0	1058	4235.80137050408	71
0	1062	4242.980596871614	72
0	1063	4246.041383539047	71
0	1068	4256.366654311335	72
0	1071	4276.389397812957	71
0	1076	4279.361482066331	72
0	1078	4290.724891741178	73
0	1080	4300.283251491401	74
0	1083	4309.74085617411	73
0	1088	4335.357544391871	74
0	1090	4336.528102370801	75
0	1091	4345.960743536684	74
0	1098	4358.106640540793	75
0	1099	4375.273782628144	74
0	1106	4388.154896415008	75
0	1108	4389.6032786173	76
0	1112	4407.318491537898	77
0	1114	4407.513199724709	78
0	1116	4413.88487668229	79
0	1117	4427.204375898141	78
0	1121	4448.931463318255	77
0	1126	4458.406556471127	78
0	1132	4490.574913452844	79
0	1134	4504.073932925908	80
0	1136	4505.675510044788	81
0	1137	4511.858002461441	80
0	1142	4518.354152574618	81
0	1146	4535.587502410523	82
0	1147	4538.772901290537	81
0	1152	4546.295589432392	82
0	1154	4547.01564602738	83
0	1158	4577.632614406246	84
0	1160	4588.889118442589	85
0	1161	4600.293724498769	84
0	1166	4605.147085666299	85
0	1168	4628.022993248675	86
0	1169	4631.202101587712	85
0	1176	4648.988775347798	86
0	1180	4658.962622005198	87
0	1182	4662.142862341188	88
0	1183	4684.906824561585	87
0	1187	4694.471036303935	86
0	1196	4724.799452132119	87
0	1197	4750.484916246527	86
0	1201	4763.313980794294	85
0	1206	4773.079780742278	86
0	1212	4819.957173558249	87
0	1214	4831.070351821414	88
0	1215	4852.378592031855	87
0	1220	4854.495625720354	88
0	1221	4855.563638990092	87
0	1228	4879.688449132829	88
0	1232	4885.177719572901	89
0	1234	4914.308923804415	90
0	1236	4917.808824768779	91
0	1238	4918.005113496742	92
0	1239	4922.092070859269	91
0	1246	4949.836235952606	92
0	1247	4955.422758512494	91
0	1252	4963.836748674914	92
0	1256	4976.057899900625	93
0	1258	4978.108937760695	94
0	1259	5009.549273675309	93
0	1264	5038.787789208646	94
0	1266	5042.218561756102	95
0	1269	5049.638208096214	94
0	1273	5065.959580651462	93
0	1282	5090.122157543891	94
0	1283	5136.351804196151	93
0	1287	5143.397323299759	92
0	1292	5149.757750690416	93
0	1294	5150.435187795265	94
0	1298	5157.769290871147	95
0	1301	5216.329595719358	94
0	1305	5216.776208233268	93
0	1310	5221.644528324794	94
0	1316	5258.977337728408	95
0	1318	5269.235877564987	96
0	1320	5284.605129112808	97
0	1321	5286.671850703081	96
0	1325	5306.655635558688	95
0	1334	5337.588894357411	96
0	1336	5338.740752693752	97
0	1338	5346.652064701656	98
0	1340	5348.462214104622	99
0	1342	5353.760912857371	100
0	1344	5359.175400672116	101
0	1346	5378.237851437437	102
0	1347	5380.030085974078	101
0	1351	5386.315216569039	100
0	1360	5414.828694554611	101
0	1362	5420.634162857076	102
0	1364	5421.294242558203	103
0	1366	5426.293258891198	104
0	1368	5443.650496288948	105
0	1370	5449.489417723524	106
0	1371	5451.178046648854	105
0	1375	5451.970791732922	104
0	1380	5478.977862219197	105
0	1385	5520.512872542437	104
0	1389	5534.35253298699	103
0	1396	5552.169104588431	104
0	1400	5585.072773129919	105
0	1402	5598.551642014293	106
0	1403	5610.012492786814	105
0	1407	5616.073672839024	104
0	1412	5618.986008962484	105
0	1414	5624.512112821035	106
0	1418	5647.525364679624	107
0	1421	5654.43999756768	106
0	1426	5669.24943090277	107
0	1429	5699.466502570137	106
0	1436	5721.562249551213	107
0	1437	5729.803202040863	106
0	1442	5737.741843453868	107
0	1446	5764.54736269346	108
0	1448	5775.26533860025	109
0	1449	5785.467316536235	108
0	1454	5787.118486958983	109
0	1455	5801.146358382524	108
0	1464	5838.915009868928	109
0	1466	5850.838447696864	110
0	1468	5859.408599780461	111
0	1469	5874.382366391965	110
0	1475	5890.620329917385	109
0	1480	5914.79148943722	110
0	1482	5921.826837145818	111
0	1484	5924.407607209504	112
0	1487	5948.130466130129	111
0	1491	5952.731014303005	110
0	1500	6021.00201216889	111
0	1501	6023.171111121716	110
0	1506	6029.868700088916	111
0	1507	6044.306143810826	110
0	1512	6056.107961710611	111
0	1516	6058.958020623621	112
0	1518	6068.488337043073	113
0	1522	6077.864250875855	114
0	1523	6080.933545500254	113
0	1528	6087.241813988412	114
0	1532	6118.988958582262	115
0	1534	6122.760253067284	116
0	1535	6124.735715477762	115
0	1540	6136.781163253804	116
0	1541	6155.832404689055	115
0	1550	6173.331688610138	116
0	1552	6189.541551553781	117
0	1553	6195.041943114471	116
0	1557	6231.907283843189	115
0	1564	6246.690058510102	116
0	1566	6247.188620424656	117
0	1569	6263.339586461285	116
0	1574	6271.239767318837	117
0	1576	6295.854144339456	118
0	1580	6307.877237267135	119
0	1581	6323.805064279691	118
0	1586	6332.570834788205	119
0	1588	6335.87669503462	120
0	1589	6346.683198253354	119
0	1594	6347.743306399833	120
0	1598	6366.27607840577	121
0	1600	6368.384001004011	122
0	1604	6378.035505307226	123
0	1605	6394.41412381148	122
0	1609	6416.500251523226	121
0	1614	6442.541826981558	122
0	1620	6460.482887263671	123
0	1622	6466.469947322499	124
0	1623	6498.042397687627	123
0	1627	6510.218914887441	122
0	1632	6511.884149470433	123
0	1637	6564.334635541968	122
0	1641	6579.67015481012	121
0	1646	6582.065420490508	122
0	1648	6591.402707361774	123
0	1654	6636.452564763199	124
0	1655	6650.090149857657	123
0	1660	6651.340129991154	124
0	1661	6654.343842934389	123
0	1666	6659.336035440702	124
0	1668	6660.334347489228	125
0	1674	6706.684868740539	126
0	1676	6712.535880764364	127
0	1678	6720.543511393552	128
0	1679	6725.103152618039	127
0	1684	6732.360215801643	128
0	1686	6746.652899549202	129
0	1689	6762.687066878403	128
0	1694	6773.601876023019	129
0	1697	6825.011684572556	128
0	1701	6831.413748134042	127
0	1706	6831.50422836344	128
0	1712	6873.782364656374	129
0	1714	6880.150224977491	130
0	1716	6895.841358915851	131
0	1717	6897.60612509197	130
0	1722	6899.051041063015	131
0	1723	6918.478349969455	130
0	1728	6923.831771210581	131
0	1730	6924.32843536551	132
0	1734	6939.451760321315	133
0	1738	6955.783614098274	134
0	1739	6980.179432225952	133
0	1745	7006.122780314607	132
0	1750	7006.833143969223	133
0	1754	7054.158949246171	134
0	1755	7067.192980318877	133
0	1760	7073.62840011909	134
0	1761	7089.685492995894	133
0	1766	7097.109802854978	134
0	1772	7120.876386060727	135
0	1774	7136.366721819426	136
0	1775	7141.836762199958	135
0	1780	7158.658941879408	136
0	1782	7163.810639206232	137
0	1783	7170.719460150651	136
0	1792	7184.647528502652	137
0	1794	7220.540990782595	138
0	1795	7232.375777697229	137
0	1799	7239.678537195625	136
0	1808	7286.353967387784	137
0	1810	7307.27047324351	138
0	1812	7315.398730578459	139
0	1814	7315.989366801738	140
0	1815	7320.976811112287	139
0	1821	7340.478391356361	138
0	1826	7347.282497815688	139
0	1829	7369.722232952033	138
0	1834	7380.149562519805	139
0	1836	7390.71244233424	140
0	1840	7406.204717061363	141
0	1841	7423.558565977869	140
0	1846	7425.730557520734	141
0	1848	7433.689525413711	142
0	1850	7436.554499489418	143
0	1851	7438.369648929827	142
0	1858	7446.919056451493	143
0	1862	7460.891127790419	144
0	1864	7470.431082809306	145
0	1865	7472.901137247373	144
0	1872	7521.541437142588	145
0	1873	7522.320903928742	144
0	1877	7529.782282343837	143
0	1882	7544.373747613007	144
0	1884	7548.21565913598	145
0	1886	7555.825878107221	146
0	1890	7565.683453474559	147
0	1892	7571.344902191508	148
0	1895	7590.795707439546	147
0	1899	7629.902951125601	146
0	1904	7632.135533994186	147
0	1908	7637.572850765672	148
0	1911	7659.829893538978	147
0	1916	7685.265157630288	148
0	1920	7693.443508215218	149
0	1922	7705.049299974882	150
0	1923	7719.832382861742	149
0	1928	7724.69406366307	150
0	1930	7730.378458533637	151
0	1931	7745.405412950162	150
0	1940	7772.534065701706	151
0	1942	7773.794534586855	152
0	1944	7786.669030703899	153
0	1945	7790.980431459587	152
0	1949	7816.500286711158	151
0	1958	7834.330396167729	152
0	1960	7849.135439996028	153
0	1962	7856.396383083906	154
0	1964	7864.126266724779	155
0	1965	7865.372167057468	154
0	1971	7886.980851057792	153
0	1977	7939.606321720226	152
0	1981	7946.321217309277	151
0	1990	7988.044469099219	152
0	1991	8016.026005383141	151
0	1995	8032.735463805135	150
0	2002	8040.037934006124	151
0	2004	8054.489978756829	152
0	2006	8065.824017953824	153
0	2010	8074.999044006753	154
0	2011	8083.566440782633	153
0	2015	8099.515686388976	152
0	2024	8127.681671925615	153
0	2026	8129.717984765156	154
0	2027	8141.274634445575	153
0	2031	8144.697535913528	152
0	2036	8151.119634557716	153
0	2041	8201.670071903762	152
0	2045	8208.349831912705	151
0	2053	8250.776138353274	150
0	2057	8260.414838782932	149
0	2066	8295.789003613689	150
0	2068	8302.144390441324	151
0	2070	8310.318743526006	152
0	2072	8312.031159408225	153
0	2074	8315.22715501691	154
0	2075	8337.459313760891	153
0	2079	8338.852083930296	152
0	2084	8344.213592406424	153
0	2088	8373.877060567126	154
0	2092	8377.831695925948	155
0	2093	8412.786960429526	154
0	2097	8417.804443500772	153
0	2102	8441.589379371415	154
0	2107	8476.023844695141	153
0	2114	8498.119858782706	154
0	2115	8499.622767510153	153
0	2121	8549.05361039741	152
0	2127	8578.576853622595	151
0	2132	8580.118544636102	152
0	2134	8580.297972382782	153
0	2136	8582.344341974233	154
0	2138	8584.235676704252	155
0	2140	8598.009893583374	156
0	2142	8617.318609577305	157
0	2145	8630.246892874547	156
0	2150	8634.720207784645	157
0	2151	8648.207697690789	156
0	2159	8706.02778544979	155
0	2164	8718.625580187084	156
0	2166	8730.840663684385	157
0	2170	8745.042070597499	158
0	2171	8746.872623074716	157
0	2175	8764.349135078054	156
0	2181	8787.068668271037	155
0	2190	8823.244885990573	156
0	2192	8824.45837199407	157
0	2193	8842.508361810683	156
0	2198	8846.715648226304	157
0	2199	8848.403481076757	156
0	2204	8856.921076181475	157
0	2208	8868.225308878416	158
0	2210	8877.617469520987	159
0	2214	8896.68318814544	160
0	2215	8907.662375819348	159
0	2219	8913.184141490665	158
0	2224	8918.354151911308	159
0	2226	8933.751390627583	160
0	2230	8941.353771254352	161
0	2232	8943.695172040912	162
0	2235	8977.88064229699	161
0	2239	8978.6293782928	160
0	2244	8979.528258758645	161
0	2248	9006.2596271051	162
0	2252	9016.46481011227	163
0	2254	9018.790643447606	164
0	2256	9033.927729792132	165
0	2257	9050.663130216646	164
0	2262	9052.571464603445	165
0	2264	9053.173120514148	166
0	2265	9055.348076351894	165
0	2274	9117.126295662258	166
0	2275	9123.828696169486	165
0	2279	9155.419162484086	164
0	2284	9161.512206097726	165
0	2288	9170.597957638959	166
0	2291	9202.479774242165	165
0	2297	9245.164809112761	164
0	2302	9267.349706620184	165
0	2303	9271.490610255034	164
0	2310	9276.692771149391	165
0	2312	9292.105392365405	166
0	2314	9293.888814010769	167
0	2316	9300.308767168627	168
0	2318	9305.313832776688	169
0	2320	9305.488390702825	170
0	2322	9307.595913515434	171
0	2324	9308.101135951449	172
0	2328	9314.259911863062	173
0	2330	9317.376295585263	174
0	2332	9318.745073092928	175
0	2333	9322.512801280089	174
0	2338	9333.166121181321	175
0	2340	9336.703735303758	176
0	2342	9337.837412926915	177
0	2345	9350.096335159291	176
0	2350	9354.242592779105	177
0	2353	9398.457455426006	176
0	2358	9399.756992440573	177
0	2360	9411.104354833891	178
0	2362	9422.239771062691	179
0	2365	9429.943479433946	178
0	2370	9437.265218536096	179
0	2372	9448.223467290133	180
0	2375	9469.183540446267	179
0	2380	9476.031253834667	180
0	2382	9484.65329037899	181
0	2383	9497.507809655268	180
0	2390	9529.861299326505	181
0	2394	9551.889220892655	182
0	2395	9557.527711321766	181
0	2399	9567.257490479296	180
0	2404	9575.363575450144	181
0	2410	9595.927681815881	182
0	2412	9605.372256788762	183
0	2414	9611.233526744517	184
0	2416	9620.313355679514	185
0	2417	9629.239506253137	184
0	2422	9636.331529336728	185
0	2423	9642.311859025181	184
0	2428	9659.229258326109	185
0	2434	9697.420358696187	186
0	2436	9699.91757585296	187
0	2438	9709.986098162045	188
0	2439	9712.121780395152	187
0	2444	9713.469482584175	188
0	2445	9714.231390450715	187
0	2452	9740.943867877917	188
0	2456	9759.923594813438	189
0	2458	9763.65258749725	190
0	2460	9765.350015718046	191
0	2461	9788.209538280697	190
0	2466	9788.540335038165	191
0	2467	9797.580385702343	190
0	2476	9856.398949330996	191
0	2477	9859.211934812071	190
0	2484	9892.601169560228	191
0	2485	9893.885398609599	190
0	2490	9907.312304659097	191
0	2492	9907.981399841632	192
0	2494	9917.283114716596	193
0	2495	9917.890143234334	192
0	2500	9928.383749222886	193
0	2504	9936.045110564582	194
0	2506	9953.168433712671	195
0	2509	9965.083618087376	194
0	2516	9992.316801557463	195
0	2517	9993.545995549659	194
0	2522	10014.35203990377	195
0	2523	10019.262832511712	194
0	2531	10056.329035337145	193
0	2536	10072.370220727452	194
0	2540	10095.504206521435	195
0	2542	10118.025262475399	196
0	2544	10123.280370674192	197
0	2545	10126.417676133473	196
0	2550	10128.898193784134	197
0	2552	10156.352673900753	198
0	2553	10162.480698882027	197
0	2561	10205.322086883965	196
0	2566	10207.568552196107	197
0	2568	10222.90305983866	198
0	2569	10230.92363894339	197
0	2578	10260.091191287033	198
0	2580	10267.248244733587	199
0	2581	10270.477032337244	198
0	2586	10304.259957665307	199
0	2589	10316.257378641874	198
0	2595	10347.999357586339	197
0	2602	10378.379770411738	198
0	2604	10380.656983557856	199
0	2605	10393.009234108962	198
0	2612	10422.690855239445	199
0	2613	10428.781168647722	198
0	2618	10440.839113638227	199
0	2619	10450.316819927795	198
0	2624	10459.721938679555	199
0	2626	10465.268089258155	200
0	2630	10487.675270913272	201
0	2634	10493.43953427144	202
0	2636	10498.523627525648	203
0	2638	10511.733105411276	204
0	2640	10512.234397162341	205
0	2642	10513.050687169357	206
0	2644	10513.200614058328	207
0	2645	10529.739472037791	206
0	2650	10533.617262439381	207
0	2654	10558.042865977492	208
0	2655	10560.146367700931	207
0	2659	10575.93045551927	206
0	2664	10591.190756390862	207
0	2668	10612.421822716789	208
0	2671	10630.00507209878	207
0	2675	10641.045649280813	206
0	2680	10641.812489034177	207
0	2682	10647.122389887134	208
0	2686	10649.507687286636	209
0	2688	10651.20516176286	210
0	2690	10655.981332951858	211
0	2692	10663.754004276482	212
0	2694	10667.79714300152	213
0	2698	10686.697502813756	214
0	2699	10695.947807088084	213
0	2704	10697.01513726428	214
0	2707	10712.068287123635	213
0	2712	10719.682902470191	214
0	2714	10730.764585367144	215
0	2716	10732.096688111964	216
0	2718	10733.409951815502	217
0	2720	10739.549499466348	218
0	2724	10744.219773587113	219
0	2726	10752.78493416335	220
0	2727	10770.517743293988	219
0	2731	10797.727691097933	218
0	2736	10806.666087862994	219
0	2740	10815.04127490811	220
0	2744	10833.654746040571	221
0	2745	10846.908543331252	220
0	2750	10859.638732689223	221
0	2752	10879.931267774514	222
0	2753	10880.475024450387	221
0	2760	10896.107070300113	222
0	2761	10918.055251144499	221
0	2770	10945.376962883632	222
0	2772	10973.515573789157	223
0	2773	10982.538321068666	222
0	2778	10998.624587219085	223
0	2779	10998.890962751057	222
0	2788	11033.460867648333	223
0	2790	11046.277389078286	224
0	2791	11054.193602920786	223
0	2796	11064.051469630525	224
0	2799	11070.394766239953	223
0	2804	11074.594845424462	224
0	2806	11083.433509201912	225
0	2810	11127.408814995227	226
0	2811	11134.396400396066	225
0	2815	11153.886673605101	224
0	2822	11199.581915333824	225
0	2825	11219.600603936712	224
0	2830	11224.370858509438	225
0	2831	11226.44210398564	224
0	2838	11238.643081574515	225
0	2842	11293.972684935616	226
0	2844	11299.443982180598	227
0	2845	11307.175228837134	226
0	2849	11308.418201314157	225
0	2858	11350.802436575883	226
0	2860	11368.4205889214	227
0	2862	11371.619300998785	228
0	2864	11377.469862457252	229
0	2865	11377.671770032872	228
0	2869	11377.836879221834	227
0	2874	11383.408803632876	228
0	2878	11408.090404167662	229
0	2882	11423.304736204354	230
0	2884	11441.009073097382	231
0	2886	11448.907578939208	232
0	2887	11459.712791573751	231
0	2891	11473.263256799699	230
0	2896	11482.07944667732	231
0	2902	11531.374649405747	232
0	2903	11538.437118963122	231
0	2907	11546.618638584631	230
0	2916	11607.866042534527	231
0	2917	11609.312926267464	230
0	2923	11636.760661759962	229
0	2928	11638.074138908289	230
0	2932	11680.247488545997	231
0	2934	11683.299011508794	232
0	2935	11687.468677987569	231
0	2939	11714.678539667088	230
0	2947	11742.883289467201	229
0	2951	11781.78841487589	228
0	2958	11802.623725503859	229
0	2960	11822.386698567173	230
0	2961	11827.00813770377	229
0	2967	11839.944891566246	228
0	2972	11851.194530667315	229
0	2974	11855.94584152593	230
0	2978	11862.093186980972	231
0	2980	11863.317575623437	232
0	2984	11880.456037653147	233
0	2985	11896.282123484942	232
0	2989	11906.041353574484	231
0	2994	11922.209842915789	232
0	3000	11948.029097027514	233
0	3002	11950.492764473272	234
0	3004	11954.08698565814	235
0	3005	11963.190875398608	234
0	3009	11979.893604006497	233
0	3014	12000.112052978759	234
0	3020	12026.257880678774	235
0	3022	12042.975432029551	236
0	3023	12060.165925979013	235
0	3028	12060.240402914848	236
0	3029	12061.529669971793	235
0	3036	12088.564272524773	236
0	3040	12104.973623883155	237
0	3042	12119.541903391337	238
0	3043	12128.795177623163	237
0	3047	12130.181785660071	236
0	3052	12136.174762445442	237
0	3056	12162.036201202961	238
0	3058	12167.631337250799	239
0	3060	12168.417742249375	240
0	3063	12190.826166203248	239
0	3067	12220.189346379871	238
0	3074	12234.888984777428	239
0	3076	12242.990449361078	240
0	3079	12264.404560316994	239
0	3084	12268.991369544653	240
0	3085	12275.230393807586	239
0	3092	12303.289831626663	240
0	3095	12333.477198159964	239
0	3101	12346.826393420624	238
0	3108	12402.530486524583	239
0	3110	12403.957226652887	240
0	3112	12409.515487588932	241
0	3113	12415.348094602018	240
0	3117	12427.223065076089	239
0	3122	12433.979282399951	240
0	3126	12443.928681948416	241
0	3130	12469.950934705641	242
0	3131	12471.117566473694	241
0	3137	12498.745371236486	240
0	3142	12501.597747711423	241
0	3144	12508.47125541127	242
0	3146	12532.61267862932	243
0	3150	12536.576705040343	244
0	3151	12538.603881896633	243
0	3156	12548.20085110259	244
0	3160	12562.971101842914	245
0	3162	12591.010640782885	246
0	3163	12613.717676683029	245
0	3167	12617.265381781941	244
0	3172	12629.439719502537	245
0	3174	12642.969117099918	246
0	3178	12655.254722672254	247
0	3181	12686.87927121886	246
0	3186	12693.753439425463	247
0	3187	12704.405656158168	246
0	3192	12706.931610362216	247
0	3194	12713.504851515605	248
0	3200	12755.772817201276	249
0	3201	12770.641284364123	248
0	3205	12777.201425314448	247
0	3212	12802.347334944885	248
0	3215	12818.873196940061	247
0	3219	12833.330539656327	246
0	3227	12902.49211382328	245
0	3231	12906.842782347833	244
0	3239	12955.196591701773	243
0	3244	12973.56770013112	244
0	3245	12982.554868375399	243
0	3252	12997.650123333422	244
0	3255	13008.146323918077	243
0	3260	13033.563262110205	244
0	3264	13044.287245912976	245
0	3266	13044.532162689837	246
0	3268	13045.183775761534	247
0	3269	13046.342202790003	246
0	3274	13052.980420691894	247
0	3278	13076.763782182025	248
0	3279	13086.756273823312	247
0	3284	13103.464643868548	248
0	3286	13104.295886244503	249
0	3289	13122.023536032024	248
0	3296	13160.041658898205	249
0	3297	13170.631262546796	248
0	3301	13199.317189837565	247
0	3308	13205.688670197923	248
0	3310	13206.588103556685	249
0	3314	13223.658736963624	250
0	3315	13263.26985927836	249
0	3320	13265.984413924404	250
0	3322	13271.588643486508	251
0	3324	13276.671361743721	252
0	3326	13279.325742340656	253
0	3327	13289.781685135102	252
0	3333	13328.934310832163	251
0	3340	13340.767515145145	252
0	3342	13341.42534054123	253
0	3346	13341.848793178346	254
0	3347	13355.513036952322	253
0	3352	13365.832307099515	254
0	3354	13371.418065139751	255
0	3355	13396.875821293459	254
0	3362	13402.07819325519	255
0	3364	13407.457603822026	256
0	3368	13434.717070455827	257
0	3369	13445.299057951311	256
0	3374	13454.095078513668	257
0	3376	13456.9713056095	258
0	3377	13474.209328926926	257
0	3384	13487.097758854747	258
0	3387	13501.94779015222	257
0	3392	13528.893236608307	258
0	3394	13531.663673450521	259
0	3396	13540.289340093505	260
0	3398	13553.041974478589	261
0	3402	13558.867744146481	262
0	3404	13560.278191438332	263
0	3406	13561.788920656519	264
0	3407	13569.308763697214	263
0	3411	13578.008749658749	262
0	3420	13619.383796283193	263
0	3421	13643.365182787614	262
0	3425	13665.359603778007	261
0	3430	13670.198665026643	262
0	3434	13677.815988113853	263
0	3436	13689.872266201411	264
0	3439	13707.158356056314	263
0	3444	13709.580071092422	264
0	3446	13715.786483386533	265
0	3448	13727.032931885869	266
0	3450	13731.484044625455	267
0	3454	13752.602262611746	268
0	3455	13757.987186717312	267
0	3460	13766.172653581394	268
0	3461	13780.284149491289	267
0	3469	13816.448657978533	266
0	3474	13835.781281988686	267
0	3477	13854.739690759998	266
0	3482	13858.386098767242	267
0	3483	13858.576225738205	266
0	3488	13865.825618935758	267
0	3490	13878.957111785422	268
0	3496	13895.28833840687	269
0	3498	13897.212568290261	270
0	3499	13903.033092042118	269
0	3504	13921.624645727461	270
0	3506	13936.573019237902	271
0	3508	13936.801420968773	272
0	3509	13942.424816968331	271
0	3516	13952.773997577512	272
0	3518	13953.822517954556	273
0	3519	13968.591655915639	272
0	3528	14000.863635655985	273
0	3530	14004.161770774806	274
0	3532	14004.775248288472	275
0	3534	14004.788537012948	276
0	3535	14020.954789862196	275
0	3539	14026.291719987338	274
0	3544	14052.963591826896	275
0	3548	14055.269648304074	276
0	3550	14065.419211584194	277
0	3554	14071.567374587399	278
0	3556	14100.11380188082	279
0	3557	14108.926919572909	278
0	3563	14131.162731337652	277
0	3569	14171.574910948707	276
0	3574	14173.967276305086	277
0	3575	14198.295325469613	276
0	3583	14257.724504776595	275
0	3587	14259.119786432773	274
0	3594	14297.451217764224	275
0	3598	14306.197294884846	276
0	3599	14329.249448954335	275
0	3603	14333.780746361125	274
0	3608	14337.113419063106	275
0	3612	14365.571304292634	276
0	3616	14380.500193742979	277
0	3618	14380.844347605904	278
0	3620	14405.210603129176	279
0	3621	14411.734439938949	278
0	3625	14434.020678029852	277
0	3631	14458.666545292553	276
0	3638	14473.468868382829	277
0	3641	14505.011868766485	276
0	3646	14515.354217333745	277
0	3648	14529.991558124037	278
0	3649	14530.95015752001	277
0	3657	14586.469933593643	276
0	3662	14599.575442082512	277
0	3663	14600.984001257217	276
0	3668	14610.594081573653	277
0	3672	14631.090146472087	278
0	3676	14642.735653095121	279
0	3677	14645.431543615588	278
0	3682	14667.913573198168	279
0	3684	14668.629434366501	280
0	3685	14669.554272819748	279
0	3690	14676.682373660389	280
0	3694	14692.767583616776	281
0	3697	14731.41781716603	280
0	3701	14753.449831548236	279
0	3708	14776.460589826172	280
0	3709	14792.067840971814	279
0	3717	14830.645626114922	278
0	3723	14881.277731348163	277
0	3728	14900.69287735392	278
0	3730	14911.328195989498	279
0	3731	14913.996508385116	278
0	3740	14973.855568870455	279
0	3741	14981.670559870646	278
0	3745	14984.644861003237	277
0	3750	14990.971795275536	278
0	3756	15022.353212221265	279
0	3758	15023.780564433644	280
0	3760	15026.070059021482	281
0	3761	15036.683538141646	280
0	3765	15056.152759712683	279
0	3772	15083.41418047563	280
0	3776	15093.531799090907	281
0	3778	15097.169181932562	282
0	3780	15103.646416079609	283
0	3782	15109.148062354786	284
0	3783	15115.12862700217	283
0	3787	15120.57824857233	282
0	3792	15123.266345831664	283
0	3794	15126.738983307443	284
0	3796	15131.981122678113	285
0	3802	15152.678911279979	286
0	3804	15158.937788354043	287
0	3806	15167.032025659861	288
0	3807	15183.910477805558	287
0	3812	15199.246360035219	288
0	3815	15220.97528292118	287
0	3822	15287.304647853647	288
0	3823	15292.367626605718	287
0	3828	15307.406084579595	288
0	3830	15309.938500133487	289
0	3831	15317.318764897289	288
0	3836	15321.041101037285	289
0	3838	15321.728201180453	290
0	3840	15322.093443170291	291
0	3842	15323.823698699575	292
0	3846	15341.684236490986	293
0	3849	15367.401950338737	292
0	3854	15370.718606960977	293
0	3857	15408.087304633696	292
0	3862	15422.116278081319	293
0	3864	15425.420449071744	294
0	3868	15438.741679110052	295
0	3869	15451.201034122908	294
0	3874	15457.932978680351	295
0	3877	15479.654837769522	294
0	3882	15481.835238575385	295
0	3884	15499.922354445668	296
0	3887	15524.884823169909	295
0	3891	15527.912863533342	294
0	3900	15557.795153876755	295
0	3902	15604.75512192909	296
0	3903	15613.740751629886	295
0	3908	15615.755269210994	296
0	3909	15616.033556399223	295
0	3918	15653.527928339685	296
0	3919	15691.385276487158	295
0	3923	15696.956908556723	294
0	3928	15706.143091662797	295
0	3934	15738.568823716542	296
0	3936	15747.794412974489	297
0	3938	15747.79562441039	298
0	3940	15757.35291819812	299
0	3942	15778.190556176038	300
0	3943	15782.399022960193	299
0	3947	15791.046023629482	298
0	3952	15794.630658989857	299
0	3954	15801.801590681978	300
0	3956	15809.180241777089	301
0	3962	15837.381127591849	302
0	3963	15846.376657080685	301
0	3969	15891.852355722889	300
0	3974	15894.391171788398	301
0	3976	15906.748604162622	302
0	3980	15922.667679542514	303
0	3981	15931.872691937246	302
0	3986	15945.758584448428	303
0	3987	15954.885007450056	302
0	3994	15978.05512033808	303
0	3997	16010.955398633788	302
0	4002	16024.309427246213	303
0	4006	16044.041583438257	304
0	4007	16044.200881007929	303
0	4012	16074.62402812354	304
0	4014	16077.83630028256	305
0	4017	16113.140421799022	304
0	4022	16123.513719152903	305
0	4023	16135.6431223244	304
0	4032	16205.003544113865	305
0	4033	16212.399628446016	304
0	4038	16219.823616490256	305
0	4040	16225.432969239502	306
0	4041	16228.562279239566	305
0	4046	16231.470976195636	306
0	4048	16236.024575906109	307
0	4054	16277.878906332622	308
0	4055	16281.885584832294	307
0	4059	16287.883027453492	306
0	4064	16294.587486281828	307
0	4068	16318.763224056277	308
0	4070	16318.856538077406	309
0	4074	16338.446339701925	310
0	4076	16349.508964124316	311
0	4078	16350.233569381652	312
0	4079	16358.513855806619	311
0	4083	16371.89204521644	310
0	4088	16372.058187713432	311
0	4090	16384.4777969411	312
0	4092	16388.187833613629	313
0	4098	16408.975607394723	314
0	4099	16421.392623700721	313
0	4105	16459.896703172908	312
0	4110	16476.078096653308	313
0	4113	16508.355286447546	312
0	4117	16523.221698944149	311
0	4124	16554.732611346308	312
0	4128	16570.939454036637	313
0	4130	16583.864846434334	314
0	4131	16584.043435209824	313
0	4136	16593.936341423815	314
0	4138	16594.633262356216	315
0	4140	16597.165329967748	316
0	4143	16611.568393674519	315
0	4148	16628.913515205363	316
0	4152	16652.580391307573	317
0	4154	16658.763422332168	318
0	4155	16699.669257097415	317
0	4159	16702.354616544845	316
0	4164	16708.383387852256	317
0	4169	16731.669648177463	316
0	4173	16774.174043621261	315
0	4177	16786.373887840947	314
0	4186	16821.718098983303	315
0	4189	16830.657132252931	314
0	4194	16832.960364221391	315
0	4196	16835.020873585197	316
0	4197	16848.912069185794	315
0	4202	16848.968218391285	316
0	4206	16868.322719153737	317
0	4210	16899.878342437033	318
0	4212	16903.232273409324	319
0	4214	16910.384385580044	320
0	4216	16922.011046168829	321
0	4217	16926.541450962542	320
0	4221	16938.695817016739	319
0	4228	16954.279824291127	320
0	4231	16983.409849975943	319
0	4236	16999.751514783288	320
0	4237	17008.814720405485	319
0	4245	17052.007211755614	318
0	4252	17081.230723831734	319
0	4253	17090.303972138233	318
0	4258	17093.928051565118	319
0	4262	17131.234546656085	320
0	4264	17140.363818936596	321
0	4265	17140.763980096849	320
0	4270	17150.013902627553	321
0	4272	17150.372471315084	322
0	4273	17154.930921809203	321
0	4278	17171.980228876602	322
0	4284	17222.761471079789	323
0	4286	17224.873869539793	324
0	4288	17230.380930087611	325
0	4289	17245.500117017513	324
0	4295	17251.686829286413	323
0	4300	17270.746284121865	324
0	4304	17276.301744004135	325
0	4305	17314.210306826693	324
0	4309	17328.890276037889	323
0	4314	17331.870459836502	324
0	4316	17332.741472662636	325
0	4320	17357.628374219642	326
0	4324	17373.564657539185	327
0	4326	17374.669279230567	328
0	4327	17376.237444260213	327
0	4332	17395.280808163542	328
0	4335	17420.114815449462	327
0	4340	17429.789448657705	328
0	4341	17437.620541358034	327
0	4350	17458.321215285801	328
0	4351	17491.87384292388	327
0	4355	17522.991389328753	326
0	4363	17552.984344788758	325
0	4368	17561.433578846949	326
0	4370	17572.496158633935	327
0	4373	17603.92540834419	326
0	4378	17637.284121025285	327
0	4379	17641.476589231484	326
0	4384	17643.069791125504	327
0	4388	17659.398129014142	328
0	4390	17662.943632765392	329
0	4393	17698.934773204496	328
0	4397	17701.593623401837	327
0	4406	17743.791828166044	328
0	4408	17758.719270407674	329
0	4409	17767.975491333579	328
0	4413	17768.918056500443	327
0	4418	17773.722712156252	328
0	4420	17774.271744109687	329
0	4426	17798.564939588007	330
0	4428	17800.323606494115	331
0	4429	17843.019668480699	330
0	4433	17844.355685074448	329
0	4438	17859.952268068654	330
0	4444	17881.422814036032	331
0	4446	17892.104024288886	332
0	4448	17892.118368646794	333
0	4449	17912.633036506547	332
0	4454	17915.309847736911	333
0	4455	17929.904500872854	332
0	4460	17934.332778009511	333
0	4466	17951.568359788994	334
0	4468	17969.940913338612	335
0	4470	17971.506140296246	336
0	4472	17984.172403820177	337
0	4474	17985.801943947462	338
0	4475	17986.896908114769	337
0	4479	18005.411631716716	336
0	4488	18073.711782638749	335
0	4492	18089.277213137923	334
0	4500	18145.581709632165	333
0	4504	18173.688794695473	332
0	4512	18236.660626124947	331
0	4516	18252.233591010597	330
0	4524	18291.707848355295	329
0	4528	18302.263044180667	328
0	4536	18366.541193901559	327
0	4540	18399.897157027386	326
0	4546	18423.603853798338	325
0	4554	18480.688031720424	324
0	4558	18495.241602008811	323
0	4566	18539.735016915758	322
0	4570	18564.241029579152	321
0	4578	18601.425183420547	320
0	4582	18626.237738921078	319
0	4590	18683.603427047607	318
0	4596	18732.03028495164	317
0	4602	18760.419743685829	316
0	4608	18822.137400443886	315
0	4612	18831.290312414843	314
0	4620	18905.499537639683	313
0	4624	18911.053902772446	312
0	4630	18947.442407867284	311
0	4636	18983.36056129561	310
0	4644	19035.793464741417	309
0	4648	19050.966488121809	308
0	4656	19111.804917639873	307
0	4660	19129.65276647217	306
0	4668	19193.800913536314	305
0	4672	19226.024829366936	304
0	4680	19275.478434274006	303
0	4686	19312.738040993489	302
0	4692	19351.221368336258	301
0	4698	19393.597545469589	300
0	4704	19436.300394397998	299
0	4710	19463.634045460546	298
0	4716	19516.75689924	297
0	4720	19523.139047105698	296
0	4728	19592.549978738031	295
0	4734	19619.264784141193	294
0	4740	19668.630093434679	293
0	4744	19698.923287979687	292
0	4750	19736.607550265652	291
0	4758	19770.969477236813	290
0	4762	19786.484042975921	289
0	4770	19828.164314446125	288
0	4774	19839.055397714062	287
0	4782	19912.306143415209	286
0	4786	19915.020339749053	285
0	4794	19984.378513766644	284
0	4800	20022.309462484228	283
0	4806	20066.092539109849	282
0	4810	20083.451467045972	281
0	4818	20135.939579070652	280
0	4822	20143.290450459801	279
0	4830	20192.388649766291	278
0	4836	20249.449073179934	277
0	4840	20277.025169365354	276
0	4848	20316.262960203324	275
0	4854	20360.778492176491	274
0	4858	20379.263319044395	273
0	4866	20399.220359388615	272
0	4870	20428.823024984285	271
0	4878	20497.463532455835	270
0	4882	20500.951612270514	269
0	4890	20569.809562578104	268
0	4894	20592.100060868084	267
0	4902	20645.031776784676	266
0	4908	20674.315512593806	265
0	4914	20716.669427722525	264
0	4918	20760.342255195947	263
0	4926	20808.893860856749	262
0	4932	20857.114155895675	261
0	4938	20891.975620525199	260
0	4944	20951.508627642014	259
0	4948	20958.596371905697	258
0	4956	21030.015318582737	257
0	4960	21046.849463417354	256
0	4968	21112.898207407808	255
0	4972	21123.891701443292	254
0	4980	21213.912415306898	253
0	4984	21216.909752335759	252
0	4992	21294.558691579136	251
0	4996	21317.696908467728	250
0	5004	21341.496549148999	249
0	5010	21417.533540143046	248
0	5014	21431.423203727057	247
0	5022	21503.1400804286	246
0	5028	21536.375043374827	245
0	5034	21580.887831681061	244
0	5038	21596.957570092106	243
0	5046	21659.370169321954	242
0	5050	21663.602815783789	241
0	5058	21752.270908300828	240
0	5062	21756.038317989904	239
0	5070	21797.93029339085	238
0	5074	21816.098542882797	237
0	5082	21875.190313877717	236
0	5086	21881.797844204578	235
0	5094	21933.888637247524	234
0	5100	21960.984483754802	233
0	5106	21990.975983573298	232
0	5112	22023.402736321806	231
0	5118	22076.398127739263	230
0	5124	22102.157954242973	229
0	5130	22135.387691282202	228
0	5136	22175.19653070446	227
0	5142	22213.025185090071	226
0	5148	22250.397392342821	225
0	5152	22267.73861569143	224
0	5158	22302.704910455226	223
0	5166	22346.536843494728	222
0	5172	22397.313630390018	221
0	5178	22420.280626325303	220
0	5184	22465.195892926918	219
0	5190	22512.601000119037	218
0	5194	22530.431706524166	217
0	5202	22584.538936777707	216
0	5208	22628.155732253859	215
0	5214	22667.854693475562	214
0	5220	22709.741893000243	213
0	5226	22776.163569621656	212
0	5230	22778.500699791148	211
0	5238	22857.830327584447	210
0	5242	22858.146237181052	209
0	5250	22921.177104450761	208
0	5254	22942.250369177254	207
0	5262	23022.223626098626	206
0	5266	23024.352549540425	205
0	5274	23094.823663112522	204
0	5278	23107.275510176364	203
0	5286	23170.256666205043	202
0	5290	23182.549038627688	201
0	5298	23223.903783320095	200
0	5302	23245.014699635393	199
0	5310	23320.406074758351	198
0	5314	23327.246489193084	197
0	5322	23379.253190345478	196
0	5326	23408.902460449169	195
0	5334	23468.829457511037	194
0	5338	23479.977433229626	193
0	5346	23527.854953134743	192
0	5352	23592.378473232121	191
0	5356	23605.276958178947	190
0	5364	23662.757068761313	189
0	5368	23675.513099367298	188
0	5376	23755.975748558021	187
0	5380	23766.430775023585	186
0	5388	23830.954935981661	185
0	5392	23869.969983907858	184
0	5400	23898.508130774096	183
0	5406	23958.092943402342	182
0	5410	23976.503431106163	181
0	5418	24044.828694510278	180
0	5422	24049.290141858806	179
0	5430	24099.162962117662	178
0	5436	24138.843548239301	177
0	5440	24146.511008942347	176
0	5448	24204.333426930551	175
0	5452	24209.538152029062	174
0	5460	24288.408932350832	173
0	5464	24298.662498532285	172
0	5472	24364.049265270912	171
0	5478	24397.669820018383	170
0	5484	24422.433093823795	169
0	5490	24479.892369983069	168
0	5494	24492.35412008687	167
0	5502	24555.239330778743	166
0	5506	24582.511097328271	165
0	5512	24607.836680371468	164
0	5518	24633.09781821994	163
0	5526	24682.841487395946	162
0	5530	24716.902280081413	161
0	5538	24750.020552895944	160
0	5544	24808.688819028607	159
0	5548	24813.585195648207	158
0	5556	24894.211965988097	157
0	5560	24905.192175831378	156
0	5568	24944.993942872483	155
0	5574	24987.473524884064	154
0	5578	24992.242472025249	153
0	5586	25072.954926952445	152
0	5590	25076.094477515829	151
0	5598	25156.644438201176	150
0	5602	25159.474225032118	149
0	5610	25218.995378217623	148
0	5614	25231.479975973492	147
0	5622	25282.896990573033	146
0	5626	25287.409403993404	145
0	5634	25363.972972384912	144
0	5638	25390.829196610533	143
0	5646	25435.83044576293	142
0	5652	25488.56065047781	141
0	5656	25508.912026691088	140
0	5664	25568.81248997067	139
0	5668	25569.184068742412	138
0	5676	25635.818097781842	137
0	5680	25657.750691232743	136
0	5686	25674.21624922945	135
0	5692	25706.332031191442	134
0	5700	25759.551840249774	133
0	5706	25784.644025183468	132
0	5712	25832.481027072787	131
0	5718	25886.263763172566	130
0	5722	25910.028179305368	129
0	5730	25946.406147624875	128
0	5736	25980.334458833199	127
0	5742	26013.953379297403	126
0	5748	26042.847484959925	125
0	5754	26106.759167240046	124
0	5760	26133.960052112453	123
0	5766	26187.555968335643	122
0	5770	26210.310392478936	121
0	5778	26270.212928083886	120
0	5782	26286.870037361777	119
0	5790	26335.1540819929	118
0	5794	26357.160275211133	117
0	5802	26422.886525180598	116
0	5808	26451.347988996278	115
0	5814	26497.532916295997	114
0	5818	26514.303381892314	113
0	5826	26563.152693828229	112
0	5830	26576.675350403978	111
0	5838	26635.136222658091	110
0	5842	26639.277779483142	109
0	5850	26728.870008997727	108
0	5854	26751.714561813399	107
0	5862	26823.942515850056	106
0	5866	26824.315159400507	105
0	5874	26886.338946647618	104
0	5878	26894.335613677835	103
0	5886	26959.792001324238	102
0	5890	26977.122113072577	101
0	5898	27050.348546308472	100
0	5902	27062.673020594609	99
0	5910	27123.622570001205	98
0	5914	27163.926414359041	97
0	5922	27191.495400430584	96
0	5926	27230.283674537551	95
0	5932	27256.838779695764	94
0	5940	27319.83220929549	93
0	5944	27337.482777711665	92
0	5952	27368.836773398166	91
0	5958	27425.155234610886	90
0	5962	27457.041675773471	89
0	5968	27487.3584050005	88
0	5976	27522.000628497379	87
0	5982	27563.745542230402	86
0	5988	27612.813942219849	85
0	5992	27639.009482459936	84
0	6000	27683.995528619114	83
0	6006	27723.591573830084	82
0	6012	27761.06532014097	81
0	6016	27806.319203306747	80
0	6022	27820.595538005537	79
0	6030	27861.317758437548	78
0	6036	27890.490746572973	77
0	6040	27921.742142322634	76
0	6048	27973.157284201068	75
0	6052	28002.132744932955	74
0	6060	28060.900216023562	73
0	6064	28079.599145435429	72
0	6072	28142.13657530868	71
0	6076	28143.259302319309	70
0	6084	28208.97862071756	69
0	6090	28238.758940153762	68
0	6096	28296.997584895668	67
0	6102	28331.787000021199	66
0	6108	28373.027481054025	65
0	6114	28401.550010005152	64
0	6118	28440.742872068621	63
0	6126	28492.573485101391	62
0	6132	28507.665892800453	61
0	6138	28586.474106497216	60
0	6142	28591.059488372307	59
0	6150	28664.827801277822	58
0	6154	28677.385784561753	57
0	6162	28728.604508395905	56
0	6166	28754.549292330715	55
0	6174	28797.82415021542	54
0	6180	28829.492126557549	53
0	6186	28873.12194598107	52
0	6192	28895.147809497177	51
0	6196	28920.845619488462	50
0	6204	28959.348262822966	49
0	6210	29001.804526415524	48
0	6214	29003.168554981448	47
0	6222	29066.259465258402	46
0	6228	29094.330417832207	45
0	6234	29133.27470039878	44
0	6238	29145.448440008498	43
0	6246	29222.043885324457	42
0	6250	29226.977440534957	41
0	6258	29279.72275194949	40
0	6262	29298.275395651184	39
0	6268	29331.160745355009	38
0	6276	29376.149547819488	37
0	6280	29382.680193191372	36
0	6286	29399.738065431573	35
0	6294	29447.363901505551	34
0	6300	29497.183425677175	33
0	6304	29523.154645428054	32
0	6312	29577.473185846418	31
0	6316	29601.998284919024	30
0	6324	29653.112984329531	29
0	6328	29677.048604473676	28
0	6336	29730.675938006511	27
0	6340	29751.293295404512	26
0	6348	29824.898594069267	25
0	6352	29828.530431647916	24
0	6360	29882.987984696725	23
0	6366	29921.638412796513	22
0	6372	29949.388792354976	21
0	6378	29983.733261478959	20
0	6384	30045.425001158705	19
0	6388	30071.985625346618	18
0	6396	30140.768836347096	17
0	6400	30162.733132296855	16
0	6408	30221.906147671613	15
0	6412	30231.288813460929	14
0	6420	30312.509144785357	13
0	6424	30316.475663774759	12
0	6432	30389.901599227784	11
0	6436	30396.197519741072	10
0	6444	30454.147753201309	9
0	6448	30461.95712312631	8
0	6456	30524.919380657057	7
0	6460	30548.566172303637	6
0	6468	30608.500390138781	5
0	6474	30655.815696648681	4
0	6480	30688.460614121466	3
0	6486	30725.82777484512	2
0	6490	30756.538778662291	1
0	6498	30797.154939693975	0
1	0	0	0
1	70	326.768765017014	1
1	72	328.429953757535	0
2	0	0	0
2	4178	16786.373887840947	1
2	4180	16786.897159844994	0
3	16	89.865239569838	89.865239569838
3	28	153.469338497487	137.55184840617
3	30	167.355659018236	114.24608468543
3	38	193.844125027784	124.99052789534
3	58	242.238403064011	135.80552484751
3	60	271.74455698589	99.013433170822
3	73	328.429953757535	122.25460593597
3	82	357.641970781157	149.99291585029
3	86	369.528736571634	140.9874314746
3	96	415.329704671749	177.19492506163
3	100	436.209929420533	207.26011255552
3	116	477.904658628922	198.96359385997
3	128	517.957828994436	198.19891990725
3	132	540.642554715044	208.50505643532
3	144	580.040432213525	222.39837988933
3	146	608.316532337624	192.78607045369
3	160	640.358441993846	198.12217641743
3	166	676.116598836858	233.50096187642
3	178	712.57331896048	262.12226578651
3	180	713.294549174413	243.61587721913
3	196	803.168826496148	330.24742475194
3	200	825.267306298035	333.40597101033
3	212	874.378994111227	335.93939133924
3	222	911.961081176954	362.03083027014
3	236	952.594593999342	332.66006940344
3	238	968.673109678168	341.15934579661
3	258	1065.228087031537	418.99309195455
3	266	1077.619878072238	419.83839677912
3	284	1153.63787479453	475.73897339808
3	286	1179.343089471699	412.35425115173
3	300	1208.892883958214	424.46572856573
3	304	1226.253796386565	436.2211008245
3	318	1299.816084090056	487.32002249733
3	320	1307.261419222683	473.40391368696
3	340	1360.938562547538	516.47569475929
3	342	1378.848592903532	537.35997050033
3	356	1426.570289463974	551.97471501028
3	362	1455.456130533479	546.45392292545
3	376	1517.696691859463	586.29819693636
3	380	1523.565329762744	590.14613933346
3	392	1593.428601623137	588.53764374696
3	394	1602.246296710744	570.47043339153
3	408	1655.173781378508	622.99411549637
3	410	1655.419161589223	622.43996972592
3	430	1707.758512047424	663.12175240678
3	442	1741.502745060543	689.84246363227
3	456	1772.487322768145	705.18634292409
3	460	1784.858978794255	720.08577167871
3	472	1823.917666596494	706.53845109074
3	474	1835.356939380883	716.65177584548
3	486	1884.048956771147	760.45588427411
3	500	1955.904013356697	808.72715031836
3	502	1969.183080968109	771.2001277706
3	512	2043.280099028926	842.4705315602
3	516	2045.921828474272	824.27664792195
3	530	2105.062533715315	858.21867696082
3	536	2127.52455198178	843.85504579754
3	544	2180.699208328181	861.71488069568
3	556	2235.628756859243	907.40981130585
3	558	2238.062488705118	909.74941234188
3	578	2285.88270235763	954.40279586978
3	590	2316.399006946886	962.26641761959
3	602	2388.350093167192	1005.997015654
3	614	2421.733176636072	1022.2122397663
3	616	2441.175236063519	1031.567423062
3	624	2490.740831551873	1076.0846186925
3	634	2531.096340437062	1072.0099896082
3	656	2608.976671403961	1112.421122978
3	658	2612.503073628234	1093.4418848654
3	666	2641.869146827679	1080.2179701435
3	676	2677.726998445005	1048.7884126998
3	690	2717.067920134146	1067.473394176
3	696	2732.555627843392	1070.0790077188
3	712	2810.22768563149	1147.3634698799
3	716	2822.187130761795	1146.6203606976
3	734	2906.675357661785	1223.9300432802
3	740	2911.672244198792	1219.2542160854
3	742	2915.744687217411	1204.0791579886
3	758	2998.308672305407	1284.4722011067
3	762	3012.405856150315	1291.4849023067
3	772	3059.792821132547	1336.9334121974
3	778	3083.369111423783	1343.6319330369
3	788	3120.630300974675	1372.1525623123
3	798	3163.20236485156	1393.5444384815
3	810	3191.677135160509	1417.0175788909
3	818	3242.776158277751	1422.7439221543
3	836	3289.682938200755	1454.2491648864
3	848	3321.99193340406	1462.217770183
3	850	3331.027578861584	1459.371945674
3	862	3396.87031893173	1487.4932828915
3	866	3411.715043292305	1515.0072596065
3	878	3472.852290652587	1428.1674442136
3	880	3500.321846859761	1452.6211802169
3	886	3532.632569803846	1474.4745025592
3	896	3550.228510005781	1491.3947070501
3	910	3631.798453147115	1571.5311425052
3	912	3633.07757040756	1491.8133229895
3	928	3693.842281912582	1478.3788226565
3	936	3735.427796992685	1492.2385106961
3	938	3745.527074364032	1501.2203870097
3	950	3768.620938034294	1511.5718880645
3	952	3780.606950301966	1528.0206844942
3	958	3821.902055869155	1560.8964157502
3	970	3868.80517365598	1607.4256241286
3	976	3884.276202256138	1619.1462737047
3	984	3933.356259294068	1636.6580763005
3	996	3966.967558661504	1652.1100951215
3	998	3972.764355252666	1657.2597556197
3	1014	4052.169730358008	1706.0485061997
3	1016	4066.583596627699	1703.2438997358
3	1030	4126.779390090534	1739.4202750678
3	1038	4167.23679743078	1774.4443210012
3	1056	4227.400426996471	1726.8679903533
3	1060	4235.86145864007	1745.4863244506
3	1070	4265.135994517282	1759.6663724981
3	1082	4302.298343827738	1739.0472099706
3	1096	4354.835879560952	1774.7251701955
3	1104	4385.927292382206	1804.6209637584
3	1110	4400.87455703642	1818.4067811703
3	1128	4458.41276330931	1864.5470361371
3	1130	4478.275722220663	1871.0277205747
3	1144	4533.319718890395	1918.5983213565
3	1156	4554.543062529902	1897.2482631054
3	1174	4637.962904352322	1979.2757515063
3	1178	4658.797320427863	1972.8715330958
3	1192	4719.242198782163	2010.5656413392
3	1194	4720.23136172993	1998.5301896487
3	1208	4783.933232729047	2045.1655819322
3	1210	4801.715065062189	2075.1240725401
3	1226	4876.197260513046	2115.6715210439
3	1230	4883.905554954111	2076.0014520682
3	1244	4945.061097973341	2127.4842273376
3	1254	4966.963017371941	2128.6291452265
3	1268	5048.126007207969	2192.0420964928
3	1278	5081.909811896567	2217.9744406177
3	1280	5084.577697195854	2179.4259010993
3	1296	5156.4164262766	2184.6870908941
3	1300	5172.449314789626	2223.9822450756
3	1312	5239.598560081348	2262.6564221113
3	1314	5251.652729710875	2248.4604318815
3	1330	5329.577914000824	2263.2437053431
3	1332	5332.442503844243	2256.734765667
3	1356	5408.262420407521	2311.7705694987
3	1358	5412.706586043661	2298.5390220142
3	1382	5479.624291448875	2332.4952039562
3	1384	5482.437235469802	2320.7376711224
3	1394	5547.941304686444	2379.7577580693
3	1398	5552.209711929804	2373.9405666476
3	1416	5638.600666403856	2447.8907827401
3	1420	5653.527772141052	2446.1503236643
3	1428	5677.289304169395	2433.2065876339
3	1434	5718.962363634636	2461.4888352819
3	1444	5754.791928897541	2496.6998747136
3	1460	5803.20921323636	2516.1260635239
3	1462	5832.931146069609	2518.3611360687
3	1474	5882.953036198852	2566.6408545328
3	1486	5937.934128804168	2620.6881922652
3	1496	5983.79340610175	2601.1775415463
3	1498	5984.922719451721	2579.6884853125
3	1514	6056.174975873104	2597.8895714235
3	1520	6072.32173627565	2530.9169099148
3	1530	6112.089086570734	2562.4296628753
3	1546	6161.161733289137	2606.5739931495
3	1548	6169.458037493708	2549.6918778104
3	1562	6233.517144015745	2600.1949442913
3	1568	6261.951794238145	2608.7203216464
3	1578	6298.654060723316	2620.7649788709
3	1596	6349.882700209362	2634.191584395
3	1602	6372.854017597236	2626.8415231864
3	1616	6450.434675280406	2624.2631877721
3	1618	6451.274173661731	2618.0307546482
3	1634	6515.570851550262	2677.2472049697
3	1636	6532.544302310132	2615.2679903784
3	1650	6600.098035460745	2635.4139719167
3	1652	6608.173337623388	2613.6366307955
3	1670	6673.067847489323	2621.1142953323
3	1672	6694.093131845038	2694.2710157344
3	1688	6748.150916923871	2666.753281607
3	1696	6783.855136795813	2695.1926571009
3	1708	6847.083383616216	2732.6146649761
3	1710	6852.017578553065	2760.176435265
3	1732	6925.968074965004	2755.9422922732
3	1736	6940.741345868302	2803.97487879
3	1744	7000.36404120585	2814.0378918962
3	1752	7030.336144304326	2808.6175985304
3	1768	7103.783941537598	2880.9260651144
3	1770	7116.440499672189	2880.6391291681
3	1788	7178.018701616831	2921.6520473055
3	1790	7181.759456682007	2938.7788598104
3	1804	7254.505581940416	2975.1440998741
3	1806	7257.480643182762	2966.7557514416
3	1820	7339.291960719592	3003.9344163277
3	1828	7367.088345188067	3066.8050936967
3	1838	7403.05950020913	3044.9528596683
3	1856	7438.440516609903	3101.9124142391
3	1860	7453.742992321656	3065.5880959066
3	1870	7507.399972296386	3100.0814807585
3	1888	7561.907978044425	3154.3947783197
3	1894	7577.640598907319	3188.03732029
3	1906	7632.403097679588	3218.5182209973
3	1910	7647.162211818987	3188.7556553479
3	1918	7686.85429663052	3196.2793831777
3	1936	7762.921781322606	3258.8478483967
3	1938	7771.910781236014	3266.2352711912
3	1954	7829.545124492535	3311.1909719179
3	1956	7830.912322669955	3295.3248202594
3	1970	7882.113318817025	3335.8177293846
3	1976	7917.992533726466	3370.9768876991
3	1986	7962.656660979168	3385.0240465729
3	1988	7982.488026144219	3393.5989077016
3	2000	8036.672423012004	3408.6494297633
3	2008	8068.441405114571	3463.2943194483
3	2020	8105.313095577956	3456.3243202302
3	2022	8126.248505327965	3467.2858833228
3	2038	8177.098645997277	3452.2991938652
3	2040	8184.480993577963	3522.3381312368
3	2050	8229.721643465868	3409.7644699076
3	2052	8244.112147333533	3471.0323665913
3	2062	8288.846802945716	3434.3511772254
3	2064	8290.694407936133	3459.6240561147
3	2086	8372.301563340156	3492.6131142073
3	2090	8377.229520958589	3492.0518013857
3	2104	8447.12566116085	3532.8167373564
3	2106	8449.725148224423	3531.9163234556
3	2112	8486.741111717912	3536.9048757653
3	2120	8516.894490537729	3598.889377041
3	2126	8572.288317140235	3596.2304172396
3	2144	8622.431650461826	3658.5949017869
3	2156	8662.442122909842	3684.3331851491
3	2158	8677.7482861597	3638.9604969511
3	2168	8731.105815268307	3688.8872535122
3	2180	8779.733682516166	3689.6115249723
3	2186	8792.818288005728	3643.0605373153
3	2188	8811.148312244119	3660.7131244489
3	2206	8868.058960978684	3710.2896701075
3	2212	8888.401275205095	3666.7567468803
3	2228	8935.958175442392	3676.980837714
3	2234	8953.604739270823	3684.3688617058
3	2246	9005.897541568741	3668.3086472113
3	2250	9006.345575360409	3721.7404462476
3	2270	9070.85880586571	3724.2067411641
3	2272	9095.513956420038	3756.7732037263
3	2286	9165.252097318789	3816.7898832142
3	2290	9188.916385623403	3835.155472766
3	2296	9233.618188743762	3874.4427880716
3	2308	9271.623018339248	3893.3851669018
3	2326	9308.987161597541	3894.1584670429
3	2344	9339.075375103099	3918.441212246
3	2352	9360.07529627605	3938.7810537178
3	2364	9426.917102639698	4000.6238437485
3	2374	9460.694388575847	4017.0438922869
3	2388	9504.999040222816	4055.5096224993
3	2392	9542.121288071608	4063.1434258524
3	2406	9586.224882485502	4001.1521093556
3	2408	9588.83168403486	4036.6625794464
3	2430	9662.820660848955	4043.8346518865
3	2432	9667.835454048936	4069.2838120346
3	2450	9738.716097509252	4091.1907328296
3	2454	9755.168421754319	4130.6563089333
3	2472	9805.832431344246	4084.270181793
3	2474	9821.96950637199	4152.7200754692
3	2482	9869.272891933015	4104.7255292396
3	2502	9935.371908054912	4197.630064601
3	2508	9955.366248219149	4180.1009096189
3	2514	9986.133517751319	4199.0150307923
3	2528	10026.73117039447	4187.8161605255
3	2530	10041.987096416784	4191.1486487199
3	2538	10087.283305448438	4227.874705668
3	2558	10165.086524924242	4250.295035487
3	2560	10181.491077834841	4259.664240689
3	2574	10236.516676365479	4312.109069156
3	2576	10236.577623961692	4215.5756117928
3	2588	10313.366066309171	4283.4973662203
3	2594	10346.41549031482	4290.3075286042
3	2600	10369.232081541717	4310.2740609181
3	2610	10421.409975294446	4352.9216382514
3	2628	10475.78624468956	4397.9219938137
3	2632	10489.379889846101	4402.1380758577
3	2652	10548.707120118704	4429.7181615364
3	2666	10602.052854751058	4479.2926016838
3	2670	10616.761054089344	4479.9798908355
3	2684	10649.283389506888	4475.9517008967
3	2696	10674.0160670801	4484.4745155263
3	2706	10710.080984241048	4463.3909257309
3	2722	10742.231052009362	4495.0424315847
3	2738	10809.063259897489	4537.8234925787
3	2742	10830.888168252492	4535.034023913
3	2758	10886.753923476203	4578.8766862091
3	2766	10921.167758631204	4588.596923843
3	2768	10944.842775313238	4608.9660802786
3	2784	11011.213331292446	4644.9372528867
3	2786	11017.679369575527	4669.9360631757
3	2798	11069.711353794821	4701.3273527908
3	2808	11084.888775793575	4706.8532704863
3	2820	11164.95898892181	4704.4761016581
3	2824	11205.822386199384	4763.2805592178
3	2836	11230.399178795069	4718.5150293246
3	2840	11249.627249154216	4783.1573018317
3	2854	11328.962195065468	4737.5594877037
3	2856	11349.499993380867	4767.4345728904
3	2876	11393.437452160816	4742.0973221697
3	2880	11411.554947409713	4775.1023826465
3	2898	11492.840589627741	4833.504554187
3	2900	11500.455045225534	4840.1206977363
3	2912	11567.276089632799	4854.7402088684
3	2914	11574.396813353655	4867.7119446131
3	2922	11630.811674375928	4898.4514585743
3	2930	11664.480790514467	4943.9372791209
3	2944	11727.826339087781	4981.1734395386
3	2946	11733.773011367316	4960.1711353443
3	2956	11784.872760394524	4953.3685320311
3	2966	11830.097002924816	4956.3146382684
3	2976	11860.937117411322	4965.0957584955
3	2982	11864.950545468735	4984.8003204912
3	2996	11938.259878425639	5039.2088373626
3	2998	11942.672710265891	5018.8409390553
3	3016	12004.832053678617	5065.3802933573
3	3018	12016.358611778855	5092.0301764133
3	3034	12078.285700651018	5122.5020865527
3	3038	12099.298067417538	5092.4649234483
3	3054	12158.025406777765	5103.8664575316
3	3062	12175.870663728108	5102.242263609
3	3072	12221.352375169582	5100.4759891089
3	3078	12248.605958890711	5151.4961560357
3	3090	12294.879429475426	5158.512707656
3	3094	12318.760041782908	5160.1010999035
3	3100	12345.199706084545	5181.3890668783
3	3106	12372.689081559059	5188.0415530564
3	3124	12435.071187063456	5214.5301962809
3	3128	12452.088688124931	5165.7347207371
3	3136	12498.177453807983	5190.9069805645
3	3148	12533.369344339647	5217.9706137612
3	3158	12562.779708546297	5246.7903417446
3	3176	12645.902488048361	5298.6199902327
3	3180	12660.664057855304	5280.5144953355
3	3196	12725.394111567015	5319.1893945057
3	3198	12737.92082713314	5347.2083847989
3	3210	12799.23010431443	5365.5405789007
3	3214	12806.763500110417	5381.0329425897
3	3224	12837.921862620086	5391.0028061686
3	3226	12857.05782398311	5420.5033244937
3	3236	12935.960180980275	5465.529098171
3	3238	12943.095972244779	5482.2048444544
3	3250	12997.003996416583	5475.462559274
3	3254	12998.567934195544	5454.1941865825
3	3262	13039.520598611365	5491.3049394754
3	3276	13056.904742309496	5501.0788642023
3	3288	13111.764178759607	5546.080725285
3	3294	13146.138116461443	5574.7932142699
3	3306	13199.682366799004	5567.5468328048
3	3312	13214.254921688944	5576.6820709233
3	3332	13298.140742884994	5612.8755852547
3	3338	13329.506346086342	5636.0628378711
3	3344	13341.786277824279	5636.7369778494
3	3360	13397.107692121459	5672.4136284584
3	3366	13410.178855678232	5679.8003971446
3	3382	13482.134946015737	5709.600880314
3	3386	13489.330129627413	5715.5355950406
3	3400	13554.799527020443	5768.1304963165
3	3416	13597.85476388097	5763.5243677132
3	3418	13607.781682407329	5758.6462424113
3	3432	13677.165987616808	5813.039720892
3	3438	13689.968336146106	5833.5719530622
3	3452	13745.509493800452	5757.4650247012
3	3466	13782.478104500165	5742.440170494
3	3468	13811.949185451044	5757.4592066942
3	3476	13846.051759806325	5780.2277418525
3	3492	13886.961492631352	5811.9624486246
3	3494	13887.464717703855	5759.7830457782
3	3514	13948.233183326481	5818.5151985613
3	3524	13976.294893260336	5825.1752587026
3	3526	13986.061631276829	5690.2726276631
3	3546	14054.1416330123	5743.8228894863
3	3552	14067.017990535255	5764.8736000939
3	3562	14122.870154843804	5807.6429998269
3	3568	14162.743093127916	5850.7119337197
3	3580	14208.89092960301	5864.6773371966
3	3582	14238.626314302507	5864.7492537354
3	3592	14295.790338363272	5854.2009589919
3	3596	14301.560033604697	5923.7283376787
3	3610	14361.878743031052	5781.7601983949
3	3614	14374.761168393727	5876.641309611
3	3630	14436.996607021152	5856.6986346384
3	3636	14471.126094879162	5888.7817529049
3	3640	14491.484613059126	5907.2489363549
3	3654	14548.045893281485	5950.0359996981
3	3656	14550.025257451305	5932.706647874
3	3670	14621.803063912091	5987.0828561274
3	3674	14635.991165893438	5917.3655857064
3	3692	14687.468587369721	5956.6279236853
3	3696	14693.081896164931	5948.0398255674
3	3706	14762.177688950824	5938.9328029603
3	3714	14796.03273383265	5971.5743618386
3	3716	14807.225682206886	5960.5100339806
3	3722	14852.337997026303	5995.4169208448
3	3736	14916.146393080892	6047.9210842025
3	3738	14930.333884797299	6052.7164152763
3	3752	15007.306648910812	6088.9524969995
3	3754	15013.685380232237	6117.0021920868
3	3770	15059.613790026277	6118.2600187719
3	3774	15088.093249476489	6154.3418588489
3	3798	15140.874699522623	6197.1795274817
3	3800	15144.247103631068	6164.7188448724
3	3814	15206.751021120601	6200.4913940155
3	3820	15255.658918960724	6239.1941088485
3	3844	15334.273867179179	6315.4832237316
3	3848	15354.767087185885	6320.8393573938
3	3856	15385.711916247959	6333.1404516445
3	3866	15429.173956802285	6376.0008362881
3	3876	15473.007458496016	6355.8811628338
3	3886	15508.482518950956	6346.9703128532
3	3896	15548.78652042565	6281.4368138055
3	3898	15551.896958656806	6381.2990010178
3	3914	15630.647692426063	6338.5423000607
3	3916	15652.77350411831	6376.0807329689
3	3930	15724.493286698917	6430.6044726881
3	3932	15724.954156297115	6424.6453891285
3	3958	15809.397846061375	6504.0840132847
3	3960	15816.558602302841	6511.0702116
3	3968	15885.069144249955	6577.4732307345
3	3978	15917.14934246725	6609.0482065158
3	3992	15959.13030295373	6644.8703910907
3	3996	15985.911752766657	6668.5354571814
3	4004	16043.544414932729	6724.7993418398
3	4016	16078.797452851188	6745.6313316699
3	4028	16155.481196805151	6818.7774615014
3	4030	16166.014692508037	6828.1772795811
3	4050	16265.899686096598	6911.6570933175
3	4052	16272.500625289207	6872.7436328486
3	4066	16314.45680762194	6892.2170365592
3	4072	16325.474779631551	6914.3704247977
3	4094	16399.408010230778	6951.1845429406
3	4096	16399.444971952527	6962.1797534164
3	4104	16453.679875602444	6977.6486217678
3	4112	16482.188653631533	6997.5353632525
3	4122	16541.65205249434	7011.7907531678
3	4126	16569.916907578177	7018.0276866855
3	4142	16600.475459414983	7025.1118839648
3	4150	16640.007604767012	7044.0799229511
3	4166	16721.817199112503	7116.4449423237
3	4168	16730.007285070349	7118.7737583258
3	4181	16786.897159844994	7150.5656305083
3	4184	16804.376896799904	7184.0635411204
3	4188	16828.594669502679	7169.3654111766
3	4204	16862.454828007571	7165.0344693114
3	4208	16878.83430411275	7178.9167282598
3	4226	16949.450509828914	7235.9810272447
3	4230	16976.50576527791	7266.5196671159
3	4242	17019.258263335799	7278.3143954579
3	4244	17027.414558297533	7267.4909634841
3	4250	17077.467706027728	7313.8151185305
3	4260	17107.546104290098	7342.1960885721
3	4280	17178.272642351016	7389.7323073129
3	4282	17203.552335167726	7347.1533858367
3	4294	17250.302176467322	7357.7010069071
3	4302	17274.396997849621	7367.0846931905
3	4318	17350.443163179472	7442.4617633378
3	4322	17360.721794933295	7443.4386802167
3	4334	17405.340130409388	7476.9563811865
3	4346	17451.211178442309	7498.0427447296
3	4348	17454.400126250045	7518.3550156855
3	4360	17531.083329076218	7538.7665275188
3	4362	17537.258756882804	7522.906716979
3	4372	17587.506142399638	7515.1359216722
3	4386	17646.115155386542	7550.6109488651
3	4392	17673.502792130713	7555.4775296553
3	4402	17722.883463965166	7599.603093291
3	4404	17732.423101438452	7603.5249076543
3	4422	17792.441499795659	7636.0888258949
3	4424	17794.914085288515	7587.3455330924
3	4440	17866.420619684745	7643.5175598461
3	4442	17875.369455886738	7615.2782645997
3	4462	17936.712019905109	7669.4637751715
3	4464	17946.738655116464	7642.4786974512
3	4485	18029.514516352702	7651.134745941
3	4487	18047.786926453848	7667.129942896
3	4497	18101.798039322553	7679.1071840831
3	4499	18128.727086738015	7687.8879730998
3	4509	18179.570568000626	7714.3024787425
3	4511	18207.179154673455	7747.4572159939
3	4521	18264.750900931845	7777.0756300186
3	4523	18289.971052883177	7796.5315186117
3	4533	18325.47678647413	7826.9531589485
3	4535	18336.431261676102	7824.6981562648
3	4545	18402.654566898693	7890.4201697364
3	4551	18435.143171334539	7921.9425572762
3	4553	18444.984288505446	7931.9336013361
3	4563	18499.073614127958	7965.4563516886
3	4565	18511.333429910634	7953.2905639331
3	4575	18567.440172167862	7976.249415777
3	4577	18599.852358196931	7987.4305354801
3	4587	18629.438639188075	7987.6261501539
3	4589	18639.962907557525	7992.8405176704
3	4595	18708.297110848744	8058.7894235621
3	4601	18749.905210990763	8098.7000492279
3	4607	18782.564882154398	8126.5835492025
3	4617	18858.775665449999	8190.9785224485
3	4619	18888.379273916521	8224.62526964
3	4629	18938.596227787602	8251.8987249738
3	4635	18953.741692069556	8256.7265548053
3	4641	18983.95534909271	8264.2724466225
3	4643	19011.856569790521	8281.0919844234
3	4653	19058.162627687076	8326.0659395751
3	4655	19087.830095500787	8354.4201436853
3	4665	19145.883665561358	8406.334166095
3	4667	19160.419934647384	8416.2001610603
3	4677	19227.231931928121	8474.4469977648
3	4679	19264.208698488694	8457.5426106257
3	4685	19291.730058010043	8476.6887831019
3	4691	19339.786462330369	8506.1317162898
3	4697	19387.058634869447	8527.4199021802
3	4703	19417.958044772566	8521.8509744725
3	4709	19455.044971537378	8575.1137037629
3	4715	19502.96680441613	8557.5898415325
3	4725	19545.015657394491	8546.3910701754
3	4727	19545.017377793551	8571.5018040044
3	4733	19617.168777179123	8583.7079095308
3	4739	19646.306726308208	8600.0293372299
3	4749	19702.482122834103	8638.4306532036
3	4755	19741.241823038272	8666.6469776138
3	4757	19749.765714514226	8666.3322053123
3	4767	19820.809859914271	8693.401044919
3	4769	19823.812847128412	8624.2309317946
3	4779	19869.780032455598	8631.1369508811
3	4781	19887.995004799047	8663.6241462896
3	4791	19951.727375804021	8652.2833936234
3	4793	19953.615034447364	8659.6423495117
3	4799	20008.794444370472	8657.9920077946
3	4805	20060.937890989017	8692.5173020676
3	4815	20095.996253929965	8724.3769529312
3	4817	20112.212708629454	8734.7428461722
3	4827	20166.408341055285	8782.9995374224
3	4829	20171.890386993599	8763.7999828259
3	4835	20229.288686855017	8805.9839506507
3	4845	20286.449548405756	8845.4404753084
3	4847	20303.948922453838	8855.0413435146
3	4853	20345.708765229153	8863.6293185518
3	4863	20385.552195435745	8854.17754603
3	4865	20397.022328552379	8789.1562860179
3	4875	20429.356228682697	8791.2820897744
3	4877	20468.541661670671	8788.2941731247
3	4887	20509.313856895273	8826.0148453865
3	4889	20527.311302003845	8724.6875765
3	4899	20604.427912107619	8753.2333814403
3	4901	20623.837031676542	8801.4503331094
3	4907	20668.886481755281	8812.9406402294
3	4913	20698.834266777283	8836.7410797963
3	4923	20763.973002388516	8900.6554267651
3	4925	20795.453256836358	8914.9972191832
3	4931	20810.949796305404	8888.7399533896
3	4937	20884.993097744307	8936.9640007168
3	4943	20927.047191395464	8976.5544269222
3	4953	20973.733586274118	8973.6215332954
3	4955	20987.159657604846	9033.0726719467
3	4965	21065.572582147627	9022.5971501181
3	4967	21078.754661034824	9052.4967803561
3	4977	21130.156764229523	9041.5924917048
3	4979	21151.309755051739	9091.0693521369
3	4989	21244.721274021301	9139.7476501381
3	4991	21247.114827799033	9127.5729244077
3	5001	21328.585144663771	9166.5489434608
3	5003	21340.709819577683	9204.5350571322
3	5009	21374.500615265846	9206.869278015
3	5019	21435.436263025969	9200.5472782485
3	5021	21443.812206160976	9275.3944639116
3	5027	21521.442118818267	9278.4516694572
3	5033	21564.068713264324	9295.0773437197
3	5043	21599.852252323666	9296.562420697
3	5045	21629.629020230626	9227.098533706
3	5055	21684.931109604119	9275.4156220152
3	5057	21686.020200851992	9282.0629741991
3	5067	21786.572010518561	9342.6433285701
3	5069	21793.17683187662	9359.1975494767
3	5079	21831.409263726135	9361.4583290205
3	5081	21861.012648342908	9359.4149006315
3	5091	21894.782987488026	9386.3117320768
3	5093	21914.719862703453	9382.1071840741
3	5099	21951.462666651143	9403.2618155486
3	5105	21989.626277987033	9453.0495729467
3	5111	22016.235008822647	9453.2639069797
3	5117	22040.096302419077	9449.0856616362
3	5123	22100.364845296544	9470.925125794
3	5129	22130.249756144846	9487.2806390449
3	5135	22172.876864503373	9517.6221418311
3	5141	22208.158890426475	9514.405451001
3	5147	22242.357928118751	9535.4263177565
3	5157	22274.022048310738	9560.5171967951
3	5163	22304.836247544544	9549.0634303433
3	5165	22333.616632275903	9531.269297331
3	5171	22348.372969828306	9374.8052696972
3	5177	22418.78261632644	9421.132492993
3	5183	22444.926953099793	9411.3636909896
3	5189	22491.922298743834	9447.6350528309
3	5199	22541.83109528644	9497.2989325966
3	5201	22570.236057431371	9525.0522816698
3	5207	22600.173003414483	9547.1925827226
3	5213	22649.621298821116	9572.8575166391
3	5219	22670.975520035562	9567.510876167
3	5225	22727.451007523383	9623.1551212789
3	5235	22803.546945893798	9597.8582756959
3	5237	22806.953728672461	9646.9120697743
3	5247	22878.091453231962	9654.4327162683
3	5249	22878.4116387298	9671.8235351731
3	5259	22956.940710674099	9685.3520671876
3	5261	22975.532561908059	9709.5481479837
3	5271	23044.809032320342	9768.1376705766
3	5273	23053.150045050116	9773.8243027095
3	5283	23127.281313506639	9786.5137983615
3	5285	23152.74802055945	9811.3226800182
3	5295	23205.343660448635	9839.5113533491
3	5297	23219.292946801738	9877.4441536234
3	5307	23254.503248252861	9883.0851831131
3	5309	23268.427709080641	9866.3495158255
3	5319	23338.535017705576	9903.8179472497
3	5321	23370.150301585401	9962.6926977634
3	5331	23415.501456286462	9961.4063777728
3	5333	23450.318099014637	9993.3467934051
3	5343	23492.887587014918	10005.78982816
3	5345	23512.631957829586	9983.7387212213
3	5351	23550.319465243577	10018.655791793
3	5361	23629.67057585187	10089.381235758
3	5363	23635.588246547976	10082.546272069
3	5373	23681.207742177962	10122.339998031
3	5375	23706.784332049824	10146.506140611
3	5385	23787.558029214805	10168.174232932
3	5387	23795.968620064185	10234.179699408
3	5397	23872.574299751369	10202.375634725
3	5399	23887.298072665282	10209.482084551
3	5405	23922.485413568373	10232.613147367
3	5415	23990.907560179718	10281.327489087
3	5417	24025.092862814653	10309.306379428
3	5427	24078.038243707623	10346.554199082
3	5429	24084.610909880303	10357.577977994
3	5435	24117.437019057945	10364.834756446
3	5445	24163.313628061941	10327.532346073
3	5447	24171.708136469921	10405.535482889
3	5457	24234.885460122325	10369.059841187
3	5459	24253.249420574404	10394.863321807
3	5469	24312.328902181997	10417.040563775
3	5471	24345.23151720587	10466.27440542
3	5477	24379.935794812016	10482.723226522
3	5483	24411.317784722765	10489.693138995
3	5489	24453.004925617509	10516.43190638
3	5499	24511.918217979948	10559.144220402
3	5501	24513.331043905075	10576.529622936
3	5511	24589.427646184088	10635.60512823
3	5517	24608.605446065681	10607.74181041
3	5523	24646.437079624589	10642.27530885
3	5525	24668.855670568846	10664.08042228
3	5535	24720.782610645664	10715.994073633
3	5537	24743.473237135898	10690.509645309
3	5543	24779.310155835275	10724.040507531
3	5553	24833.743415319395	10768.324203735
3	5555	24835.988403736858	10764.421029149
3	5565	24918.754499413445	10818.640697533
3	5567	24919.881252270351	10745.913975965
3	5573	24979.762704865937	10682.311487102
3	5583	25022.726085613674	10716.528790729
3	5585	25030.694541180571	10693.581122117
3	5595	25102.250963370524	10721.750769628
3	5597	25106.538526653701	10740.967222361
3	5607	25181.856413754772	10801.012066149
3	5609	25185.752045368051	10780.541442239
3	5619	25260.2937962479	10786.824927865
3	5621	25272.064682721058	10756.710465387
3	5631	25304.627022442121	10705.05158036
3	5633	25324.560935371962	10794.569377248
3	5643	25395.813333352723	10785.219251779
3	5645	25418.328680760068	10787.238534288
3	5651	25459.817795496108	10817.082142401
3	5661	25523.38667695564	10854.757242589
3	5663	25532.108231743525	10864.194658545
3	5673	25578.557160648518	10885.789577032
3	5675	25595.193205389159	10918.510831729
3	5685	25663.61256632896	10762.919688975
3	5691	25682.278329385196	10905.817739559
3	5697	25710.126789613199	10798.798593624
3	5699	25733.30721532945	10759.451646459
3	5705	25782.823953367868	10791.852158092
3	5711	25814.110519503676	10791.757307282
3	5717	25854.725994155984	10830.945429722
3	5727	25913.2131558926	10887.143096871
3	5729	25938.11541252625	10854.701232051
3	5735	25966.97133520497	10873.439536114
3	5741	26007.417060968245	10910.247879036
3	5747	26032.422561546386	10928.776145467
3	5753	26054.26152773194	10945.113465377
3	5759	26132.652498590256	11009.386152759
3	5765	26155.501409985558	11028.762426678
3	5775	26229.261682743435	11076.582771463
3	5777	26231.962233176306	11099.981110498
3	5787	26302.743774598983	11143.805986245
3	5789	26330.538185407614	11163.506159748
3	5799	26376.461893388937	11089.157245535
3	5801	26405.167452649238	11205.921092614
3	5807	26444.286019503615	11136.879934924
3	5813	26461.302587892631	11151.364087759
3	5823	26527.770464336713	11206.729363299
3	5825	26533.314726591447	11211.586525411
3	5835	26595.676509982557	11273.583066812
3	5837	26622.206637754151	11298.382939055
3	5847	26667.49370928243	11325.809472791
3	5849	26678.276854089284	11307.558247128
3	5859	26770.291147950493	11348.174869869
3	5861	26772.162354191061	11346.741905119
3	5871	26854.292734250127	11396.35975557
3	5873	26858.686623614028	11419.944944504
3	5883	26931.744304248167	11431.821949802
3	5885	26933.28726413293	11451.452025558
3	5895	26985.17931857222	11380.424196643
3	5897	26999.143600807151	11441.34844693
3	5907	27073.398530818701	11419.870602479
3	5909	27086.604432400428	11470.849163189
3	5919	27166.154579421642	11460.011487759
3	5921	27177.085163918509	11438.516340202
3	5931	27230.481166668516	11482.686753694
3	5937	27266.480117656644	11518.684493246
3	5939	27275.814285045203	11518.461366847
3	5949	27340.745052313703	11562.554496138
3	5951	27365.193071495138	11570.562412505
3	5957	27399.638280847252	11597.836690165
3	5967	27463.325674621409	11654.145432844
3	5973	27506.263322517187	11668.882194925
3	5975	27507.240231397	11612.849059609
3	5981	27527.906357361769	11621.157753199
3	5987	27610.316466362098	11687.64878682
3	5997	27652.762256946774	11707.003672498
3	5999	27675.498585872018	11697.443465534
3	6005	27703.443397149113	11679.133969903
3	6011	27743.885845724293	11699.844262286
3	6021	27811.197589874571	11736.573561751
3	6027	27841.353259922659	11717.83954077
3	6029	27844.299926632322	11766.46362635
3	6035	27888.843371183045	11683.839827069
3	6045	27922.000097734505	11702.176481244
3	6047	27956.725392781697	11731.292423542
3	6057	28006.702889869832	11775.231913674
3	6059	28021.0961348859	11785.07155898
3	6069	28086.464921091961	11808.586014759
3	6071	28115.705037369727	11821.117551088
3	6081	28186.152631131665	11867.296093054
3	6083	28192.379719690564	11873.616495634
3	6089	28234.101469172062	11895.65512947
3	6095	28274.794325574038	11925.28536145
3	6101	28327.977822203743	11977.744252822
3	6107	28372.812068559147	12000.753880846
3	6113	28401.328735425358	12016.850938484
3	6123	28443.974901805837	12055.787068192
3	6125	28473.943587732143	12064.967980337
3	6131	28503.656359214669	12027.578262561
3	6137	28536.072602168125	11981.339990822
3	6147	28617.702740380048	12046.763286343
3	6149	28620.658065667479	12036.793219233
3	6159	28706.703728577186	12112.767387153
3	6161	28712.624348421451	12117.991086065
3	6171	28761.548940365081	12164.383610397
3	6173	28790.790190965846	12161.87667576
3	6179	28805.941577192172	12153.361185885
3	6185	28858.409691838602	12199.646269506
3	6191	28893.722076749296	12185.338688897
3	6201	28923.915535868807	12102.197436886
3	6203	28951.30366246013	12118.343298239
3	6209	28991.472302716194	12156.451429131
3	6219	29030.542146934341	12181.573928543
3	6221	29038.623055774592	12170.300336621
3	6227	29087.916092212308	12188.037749775
3	6233	29120.279203140503	12217.046929731
3	6243	29173.227846400419	12251.216800232
3	6245	29175.601235227217	12265.216849647
3	6255	29252.422030089129	12298.142205798
3	6257	29270.061365859813	12270.309851077
3	6267	29299.952275701895	12206.024224137
3	6273	29331.516317268001	12250.285593436
3	6275	29374.918704526866	12243.684157871
3	6285	29399.17750125894	12249.163598631
3	6291	29409.277766188188	12268.913947252
3	6293	29423.360770542061	12272.988299227
3	6299	29465.338060364741	12293.357831488
3	6309	29528.66243469235	12305.900963613
3	6311	29543.814597689459	12318.94072815
3	6321	29611.900148895445	12381.519218808
3	6323	29623.342465392649	12352.596181271
3	6333	29684.075463311449	12407.773719307
3	6335	29711.928964782357	12380.058504946
3	6345	29767.8729600371	12435.131487374
3	6347	29792.904899942221	12435.276525723
3	6357	29860.528514390073	12486.963856851
3	6359	29872.980298371661	12498.311019141
3	6365	29903.334123523473	12473.544674866
3	6371	29938.152891471782	12542.872083308
3	6377	29976.471023447021	12518.149808161
3	6383	30014.979220289325	12453.545641442
3	6393	30085.349134855754	12512.852976222
3	6395	30110.92996241074	12473.645841385
3	6405	30179.228610401928	12536.158819276
3	6407	30181.364143512095	12521.966014498
3	6417	30243.78202215552	12499.990193989
3	6419	30274.006960028997	12611.063327264
3	6429	30346.096215303434	12572.373503147
3	6431	30349.726189091848	12591.006918684
3	6441	30410.793495373524	12636.521751264
3	6443	30425.592259520646	12627.027319933
3	6453	30481.932118703903	12681.60851221
3	6455	30486.96281456833	12627.0105465
3	6465	30555.726707272885	12674.303893237
3	6467	30580.13043530619	12688.026411017
3	6473	30645.33198260115	12753.213613954
3	6479	30679.298400141789	12763.988552405
3	6485	30724.98083628819	12790.648058279
3	6495	30758.746861172867	12807.178501384
3	6497	30780.039506117599	12810.098592779
3	6506	30826.804887412778	12855.298747117
3	6511	30844.467936131576	12860.295532311
3	6513	30848.515160075406	12862.713216128

