version 2
run General-0-20190508-15:23:31-6440
attr configname General
attr datetime 20190508-15:23:31
attr experiment General
attr inifile omnetpp.ini
attr iterationvars ""
attr iterationvarsf ""
attr measurement ""
attr network AmusementAlt2
attr processid 6440
attr repetition 0
attr replication #0
attr resultdir results
attr runnumber 0
attr seedset 0
param **.Source.interArrivalTime exponential(20s)
param **.TicketBooth1.serviceTime "truncnormal(75s, 15s)"
param **.TicketBooth2.serviceTime "truncnormal(75s, 15s)"
param **.TicketBooth3.serviceTime "truncnormal(75s, 15s)"
param **.TicketBooth4.serviceTime "truncnormal(75s, 15s)"
param **.SecurityBooth1.serviceTime "truncnormal(30s, 10s)"
param **.SecurityBooth2.serviceTime "truncnormal(30s, 10s)"
param **.Source.numJobs 1500
param **.Source.startTime 0s
param **.Source.stopTime 18000s

vector 0 AmusementAlt2.TicketQueue1 queueLength:vector ETV
attr interpolationmode sample-hold
attr title "queue length, vector"
vector 1 AmusementAlt2.SecurityQueue1 queueLength:vector ETV
attr interpolationmode sample-hold
attr title "queue length, vector"
vector 2 AmusementAlt2.TicketQueue2 queueLength:vector ETV
attr interpolationmode sample-hold
attr title "queue length, vector"
vector 3 AmusementAlt2.SecurityQueue2 queueLength:vector ETV
attr interpolationmode sample-hold
attr title "queue length, vector"
vector 4 AmusementAlt2.EnterPark lifeTime:vector ETV
attr interpolationmode none
attr title "lifetime of arrived jobs, vector"
attr unit s
0	0	0	0
0	28	110.636596908141	1
0	29	115.66759641405	0
0	38	125.690079174397	1
0	41	127.513299696883	2
0	46	135.686579386586	1
0	63	175.477697690616	0
0	74	196.478791413155	1
0	83	231.44104354086	0
0	101	271.17389508514	1
0	117	311.020634639532	0
0	123	318.215158077028	1
0	126	328.054883034905	0
0	131	340.193407428047	1
0	140	352.496780835354	2
0	143	361.538822039846	3
0	151	389.973864126529	4
0	159	404.851446169544	3
0	163	413.712596697081	2
0	176	460.847515137722	1
0	183	472.114653847549	0
0	197	488.264080204856	1
0	209	532.543918116907	0
0	242	624.010501904272	1
0	245	646.192981429248	0
0	251	647.594292445576	1
0	254	662.409471454517	2
0	257	664.382477622882	3
0	267	681.540390444366	4
0	270	689.211594726338	5
0	271	689.443216003284	4
0	280	711.228512928155	5
0	293	734.029826173303	4
0	297	759.641885275789	3
0	305	768.252923986947	4
0	311	788.579270001051	3
0	333	828.787717480027	2
0	339	833.658800248652	3
0	350	876.248788170013	4
0	351	879.530671666586	3
0	355	880.399154220188	2
0	363	899.836446842906	3
0	371	910.864366645591	4
0	392	940.589487274324	5
0	393	941.568756426561	4
0	401	947.673969919233	5
0	404	959.974866908901	4
0	410	964.755564632093	5
0	420	1004.717379000992	4
0	437	1023.532707380935	5
0	443	1056.391176882141	4
0	454	1077.662923551884	3
0	468	1138.439447606548	2
0	481	1171.908825449641	1
0	493	1219.084696956061	0
0	596	1538.747546372967	1
0	597	1539.304802249733	0
0	609	1562.584708446065	1
0	615	1589.111089265437	0
0	623	1597.427102923583	1
0	624	1603.507662703174	0
0	704	1821.628498016845	1
0	714	1847.082653747699	0
0	731	1876.798708933587	1
0	738	1893.466273746505	2
0	753	1918.670872267952	1
0	757	1942.242269237683	0
0	764	1943.26545528692	1
0	777	1962.943500343378	2
0	785	2000.261888542381	1
0	789	2015.060087262674	0
0	794	2016.325992542219	1
0	804	2033.983603441361	2
0	817	2075.814734893826	3
0	821	2086.392731043012	2
0	825	2086.544929243643	1
0	855	2153.721900088395	0
0	870	2160.163925039727	1
0	873	2164.374590803809	2
0	884	2183.775724730686	3
0	890	2223.966010334875	2
0	900	2246.310940215822	1
0	924	2308.199695239801	0
0	936	2327.143790762235	1
0	951	2343.687425507	2
0	954	2349.990626081316	3
0	957	2352.809983769617	4
0	975	2389.467573354134	3
0	988	2408.567255653641	2
0	999	2425.27482052512	3
0	1010	2448.996535051432	4
0	1011	2453.274492923365	3
0	1029	2489.810888015098	2
0	1038	2499.854954666413	3
0	1050	2537.928119486665	2
0	1059	2563.951131258648	3
0	1068	2570.454548668419	4
0	1071	2578.246610052426	3
0	1083	2622.541219549481	2
0	1102	2658.870377960868	3
0	1103	2659.88236416619	2
0	1118	2710.571318450596	3
0	1122	2714.50972002028	2
0	1132	2724.434895334809	1
0	1144	2745.902341870824	2
0	1151	2763.0510439231	3
0	1152	2793.586107600026	2
0	1161	2807.020132099326	3
0	1167	2813.003654784762	2
0	1182	2828.131057918686	3
0	1188	2837.283419812974	4
0	1191	2841.380465155905	5
0	1202	2853.737659939052	6
0	1206	2875.914374431939	5
0	1210	2886.382539718271	4
0	1221	2911.856052012164	5
0	1233	2923.370801954279	6
0	1248	2939.714739108522	7
0	1257	2962.261563783025	6
0	1263	2966.410255853625	5
0	1281	3031.591701091867	4
0	1291	3048.916515141406	3
0	1296	3051.792192953302	4
0	1305	3062.828235386067	5
0	1313	3087.350879630738	6
0	1317	3102.071659401419	5
0	1332	3134.917329107504	4
0	1342	3149.767491675243	3
0	1357	3177.773333817834	2
0	1368	3227.242753400343	1
0	1373	3227.858047568207	2
0	1379	3234.219138472025	3
0	1380	3235.535768196372	2
0	1392	3243.596701584582	3
0	1395	3250.858278388265	4
0	1404	3281.186343236549	3
0	1412	3287.408803744599	4
0	1415	3299.9361755259	3
0	1428	3327.800493808984	4
0	1434	3341.293714285039	5
0	1439	3348.222380834939	6
0	1442	3351.528241081354	7
0	1443	3354.229878729763	6
0	1452	3362.336295033392	7
0	1453	3366.941556522791	6
0	1470	3407.485830848519	7
0	1474	3423.486107745587	6
0	1485	3433.990792375162	7
0	1488	3439.702170785224	8
0	1491	3453.801157212738	9
0	1494	3461.233472309295	10
0	1501	3470.570759180561	11
0	1506	3480.972383726179	10
0	1519	3496.765498243083	9
0	1544	3544.699889168548	10
0	1554	3564.734967660771	9
0	1560	3575.616931018884	10
0	1561	3589.315607670193	9
0	1571	3600.39766116645	10
0	1574	3615.520986122255	11
0	1584	3647.308274794753	10
0	1591	3662.486953297179	9
0	1596	3666.570515993204	10
0	1599	3669.029767330962	11
0	1618	3710.010644686989	12
0	1624	3730.847533983409	13
0	1625	3733.72825457955	12
0	1629	3733.751880560832	11
0	1651	3787.179617594039	10
0	1656	3798.947191192189	11
0	1665	3806.02206582399	12
0	1679	3828.412880359068	13
0	1682	3841.824726788288	12
0	1688	3870.225974395455	11
0	1696	3894.884741876032	10
0	1711	3912.495738318458	9
0	1723	3953.35254660229	8
0	1734	3961.194959208292	9
0	1745	3982.836996897971	10
0	1749	4007.864284343897	9
0	1757	4012.366436610185	10
0	1760	4013.626905495334	11
0	1765	4029.576840891873	10
0	1784	4078.959158104893	9
0	1791	4099.715724404292	8
0	1802	4143.935426035466	7
0	1808	4169.927745593955	6
0	1818	4185.206473333604	7
0	1821	4190.653497860699	8
0	1830	4214.280568664333	9
0	1835	4223.775961022513	8
0	1839	4230.89737203725	7
0	1854	4292.977607046375	8
0	1855	4295.042666295458	7
0	1862	4314.633389364803	6
0	1872	4356.80755366517	5
0	1876	4386.756769439402	4
0	1894	4446.381816217592	5
0	1895	4458.524138996571	4
0	1902	4462.16406456845	3
0	1925	4519.154781235689	4
0	1928	4528.726312657086	5
0	1929	4530.985362439722	4
0	1936	4544.610559327574	3
0	1947	4571.544302846621	4
0	1953	4577.074056528641	5
0	1962	4614.502475722477	4
0	1975	4625.334436908223	3
0	1988	4682.119520450252	2
0	1995	4692.880048897883	1
0	2000	4694.539337712855	2
0	2022	4748.714434714295	1
0	2030	4761.133320300106	2
0	2031	4771.25127021563	1
0	2036	4771.518394797718	2
0	2043	4779.262344142539	3
0	2061	4808.063928921665	4
0	2062	4816.191661812387	3
0	2068	4843.276619123257	2
0	2082	4863.291679114195	3
0	2100	4887.623346152367	4
0	2109	4894.842739885066	3
0	2115	4896.519356218401	4
0	2123	4933.022265751932	3
0	2129	4936.673708971176	4
0	2139	4966.369990452138	5
0	2145	4977.099335431118	4
0	2151	4977.717352845456	5
0	2158	5005.52513938999	6
0	2159	5016.41446094337	5
0	2178	5064.66939898062	4
0	2187	5089.273406016263	3
0	2193	5095.856366213201	4
0	2198	5109.558767771954	5
0	2208	5125.930172631265	4
0	2218	5150.710006194116	3
0	2235	5201.869699609959	2
0	2244	5210.226360676542	3
0	2245	5217.437066781922	2
0	2259	5240.885465292111	3
0	2262	5250.187180167075	4
0	2265	5250.214866419197	5
0	2275	5258.395132551539	4
0	2281	5262.528502463338	3
0	2295	5295.055237943794	4
0	2301	5325.354524872945	3
0	2310	5342.306264730554	2
0	2325	5369.735028685503	3
0	2335	5399.852051547115	4
0	2338	5402.84695571228	5
0	2339	5403.025626643236	4
0	2352	5417.11228016333	3
0	2357	5423.395753055768	4
0	2370	5451.248409753559	5
0	2373	5453.748920730412	6
0	2382	5497.894091224713	5
0	2386	5503.403220896732	4
0	2397	5529.062698219261	5
0	2414	5567.750046578427	4
0	2420	5595.435006982238	3
0	2439	5631.45707557625	2
0	2449	5652.476692187003	1
0	2475	5699.158996280949	0
0	2484	5710.407802678466	1
0	2496	5738.136096161301	0
0	2508	5766.578385030646	1
0	2517	5789.040379546541	0
0	2528	5804.503919890527	1
0	2535	5829.175197432527	0
0	2547	5847.293470350176	1
0	2550	5847.396796072261	2
0	2553	5860.544183035437	1
0	2572	5899.949147966202	0
0	2719	6310.499117976741	1
0	2722	6314.355577752747	2
0	2730	6324.868857983502	1
0	2734	6333.751976039843	0
0	2745	6362.844312519124	1
0	2754	6391.652498479656	0
0	2858	6574.026533185781	1
0	2864	6582.504379992271	2
0	2865	6594.232739703648	1
0	2876	6602.246521218042	2
0	2881	6621.751102066731	3
0	2884	6624.115425967444	4
0	2892	6637.745318156243	3
0	2896	6645.894161419138	2
0	2909	6676.125661926298	3
0	2924	6732.116117295583	4
0	2925	6734.548253461876	3
0	2935	6746.133818940462	2
0	2954	6789.92193683063	3
0	2957	6812.761136689488	2
0	2961	6815.440645160041	1
0	2966	6825.835075607413	2
0	2988	6878.845228288539	1
0	2994	6892.740664039122	0
0	3006	6916.435495544006	1
0	3018	6958.761172504786	2
0	3024	6966.317320417434	1
0	3028	6971.921103573917	0
0	3051	7037.968627352431	1
0	3059	7043.348037919267	2
0	3060	7046.156360479596	1
0	3064	7063.149270101119	0
0	3075	7077.243452201662	1
0	3092	7124.236386041783	0
0	3129	7221.400534060808	1
0	3151	7252.484873108005	2
0	3152	7253.682927781891	1
0	3158	7265.708266790485	2
0	3161	7269.190429229677	1
0	3193	7323.361798814249	2
0	3194	7323.576994490553	1
0	3200	7324.410319191293	2
0	3203	7327.708454310114	3
0	3206	7327.72174303459	4
0	3213	7355.878760693292	3
0	3220	7375.94012843711	2
0	3237	7413.323114287532	1
0	3249	7424.489802675168	2
0	3256	7446.968166515168	1
0	3261	7449.503460534394	2
0	3264	7458.249537655016	3
0	3277	7488.654308285311	2
0	3282	7488.9343797143	3
0	3292	7531.973994410917	2
0	3306	7557.192644967953	3
0	3307	7562.865730768241	2
0	3318	7587.786393661033	3
0	3329	7599.320572762938	4
0	3332	7608.176371203836	5
0	3335	7611.751352272633	6
0	3336	7619.16200171452	5
0	3342	7623.396858895667	6
0	3345	7624.112720064	7
0	3352	7655.673990681119	6
0	3378	7705.148275264962	5
0	3382	7716.324014486903	4
0	3392	7762.066748392005	5
0	3402	7770.089455383186	6
0	3405	7781.573061101583	5
0	3409	7782.808210893631	4
0	3414	7796.169645243305	5
0	3432	7829.154702560178	6
0	3439	7845.565742962945	5
0	3444	7851.885496158975	6
0	3451	7864.532358893854	5
0	3466	7918.376829102952	4
0	3495	7964.052150104363	3
0	3524	8009.640283722926	4
0	3525	8013.133781270342	3
0	3531	8015.764475068252	4
0	3535	8021.517098968196	3
0	3540	8041.242787420525	4
0	3551	8061.403655589487	5
0	3558	8085.186236975728	4
0	3564	8085.946560741023	5
0	3573	8114.812719826647	4
0	3584	8146.787283801788	3
0	3600	8180.986667059343	2
0	3613	8213.50611678169	3
0	3618	8223.897955900261	2
0	3627	8229.425192161582	3
0	3628	8234.470514381386	2
0	3642	8266.107247506686	3
0	3646	8278.594755743063	2
0	3656	8298.998469006239	3
0	3663	8313.354038829797	2
0	3681	8372.105918252257	1
0	3693	8382.101970824454	2
0	3699	8393.257909267974	3
0	3710	8415.082527599754	4
0	3713	8416.377327493765	5
0	3716	8422.895158135091	6
0	3717	8423.604125305669	5
0	3727	8448.385754808531	4
0	3738	8459.347795337083	5
0	3745	8468.592921646442	4
0	3762	8513.652549746202	5
0	3774	8542.707427820901	4
0	3784	8558.610716766956	3
0	3789	8561.127422154314	4
0	3802	8600.678260933758	5
0	3809	8621.034166671467	6
0	3816	8642.957239551278	5
0	3828	8671.451984268253	4
0	3836	8689.859720863417	5
0	3844	8699.807599907778	4
0	3849	8712.34607277556	5
0	3855	8715.356619194689	6
0	3864	8724.45213139639	7
0	3869	8749.074967314995	6
0	3888	8786.750170067429	5
0	3892	8804.713965810076	4
0	3911	8862.152963452496	3
0	3921	8892.103999587123	2
0	3933	8910.979541103386	3
0	3942	8936.828216137088	2
0	3949	8944.56400792025	1
0	3957	8946.244910833437	2
0	3966	8954.906156061958	3
0	3983	9006.246793039714	2
0	3991	9022.199064107807	1
0	4022	9084.286097388558	0
0	4067	9164.022362118978	1
0	4080	9195.4459295165	0
0	4172	9389.698769175456	1
0	4173	9411.364845297753	0
0	4235	9569.236567980817	1
0	4236	9575.10224614131	0
0	4242	9575.247868222954	1
0	4248	9578.086184096439	2
0	4260	9606.249403339067	3
0	4264	9611.705843244455	2
0	4272	9613.861179266748	3
0	4281	9653.788524491671	2
0	4293	9687.448777306707	1
0	4311	9737.544424291454	0
0	4317	9738.382543255748	1
0	4318	9745.565643015777	0
0	4326	9755.206011112058	1
0	4344	9800.361920323233	0
0	4353	9805.099315109126	1
0	4359	9825.224146854271	0
0	4367	9845.584218295462	1
0	4375	9868.447840800482	0
0	4508	10234.384361461912	1
0	4520	10288.299736753379	0
0	4532	10303.175867726149	1
0	4542	10321.592742616899	0
0	4709	10761.710194888786	1
0	4718	10777.332259612975	2
0	4722	10779.123107007988	1
0	4728	10784.130249208707	2
0	4735	10806.52257165401	1
0	4754	10854.323968646349	0
0	4762	10859.323545234218	1
0	4770	10871.959555605886	0
0	4778	10889.11324763504	1
0	4788	10928.067751476924	0
0	4859	11125.417639909003	1
0	4860	11130.297973270021	0
0	4866	11139.543572412934	1
0	4871	11164.014122115955	0
0	4895	11214.688506797757	1
0	4901	11221.085247790705	2
0	4910	11243.574116799965	3
0	4916	11262.222887690585	2
0	4928	11287.967848942909	3
0	4929	11289.205793535836	2
0	4935	11322.149884752453	1
0	4944	11338.571024213773	0
0	4949	11352.608282054278	1
0	4952	11357.009226616749	2
0	4971	11385.846652915703	1
0	4977	11408.807165402124	0
0	4985	11413.553542502149	1
0	4988	11429.755878112737	2
0	4991	11440.54497419682	3
0	4992	11447.537534202532	2
0	5003	11450.777149885524	3
0	5013	11488.879986839354	4
0	5018	11501.236211056686	3
0	5026	11504.963300707046	4
0	5033	11510.875993494609	5
0	5039	11538.734732658996	4
0	5043	11548.584257881371	3
0	5058	11576.753160719947	4
0	5064	11591.301020941511	5
0	5070	11616.605220021266	4
0	5083	11642.108723124775	3
0	5094	11657.081328855464	4
0	5105	11686.463678462992	5
0	5106	11686.526246284341	4
0	5112	11693.890619622062	5
0	5115	11699.150537659022	6
0	5116	11701.454869964393	5
0	5150	11755.4739775694	6
0	5153	11770.330708145814	5
0	5166	11793.241408911587	4
0	5179	11820.674193518915	3
0	5190	11838.844145046678	4
0	5210	11864.757327505731	5
0	5214	11877.093414402167	4
0	5224	11889.908922300957	3
0	5241	11917.782563358529	4
0	5247	11936.934351282673	5
0	5254	11961.242242318831	6
0	5261	11969.952739441061	7
0	5262	11980.513207019296	6
0	5269	11987.640376168234	5
0	5281	12018.911358466904	4
0	5299	12054.431833396914	3
0	5307	12071.901800030878	4
0	5318	12088.501334621061	5
0	5319	12089.374134673916	4
0	5327	12099.991447498569	5
0	5330	12101.53175798181	6
0	5344	12117.79928402171	5
0	5352	12138.750153791161	6
0	5360	12150.221916044058	5
0	5373	12194.149624388193	4
0	5391	12219.478281271951	5
0	5392	12226.781560926899	4
0	5411	12248.6455451456	5
0	5426	12279.570047992798	6
0	5430	12289.651846456949	5
0	5434	12289.736953822935	4
0	5445	12312.7260987059	5
0	5472	12384.809460675264	4
0	5479	12402.088628787206	3
0	5507	12462.747833914368	4
0	5508	12465.120860389068	3
0	5512	12475.366005659498	2
0	5540	12528.977051551913	3
0	5541	12530.464239654248	2
0	5547	12541.925780870028	3
0	5550	12548.629074339295	4
0	5561	12560.391321505666	5
0	5565	12564.914540417437	4
0	5577	12603.773133714022	3
0	5581	12606.666500827876	2
0	5607	12691.400155946	1
0	5611	12693.695605804409	0
0	5616	12703.341624791098	1
0	5631	12718.139034486087	2
0	5640	12754.832188680092	1
0	5649	12759.185874051067	2
0	5652	12762.223500346405	3
0	5658	12778.371240934363	2
0	5670	12801.930295886053	3
0	5678	12826.610889931988	4
0	5679	12832.298589182566	3
0	5689	12845.213286343243	2
0	5702	12882.700867535605	3
0	5711	12894.951426669905	4
0	5718	12916.35166731298	3
0	5724	12936.750889150165	2
0	5732	12946.208175453047	3
0	5741	12969.280333080866	4
0	5760	12999.745262884834	3
0	5766	13007.705006570169	4
0	5769	13015.104583930771	3
0	5778	13023.111637573789	4
0	5783	13035.017557089773	5
0	5789	13038.386902324314	6
0	5794	13048.001036220555	7
0	5799	13075.043058650484	6
0	5809	13088.480931852351	5
0	5826	13148.14948942871	4
0	5836	13150.96587228321	3
0	5856	13192.275927542012	4
0	5859	13203.711183697743	3
0	5869	13229.678489955169	2
0	5886	13264.521387928463	3
0	5894	13271.343247281837	4
0	5901	13299.348122455528	3
0	5913	13327.123850200771	2
0	5926	13363.140122770986	3
0	5931	13374.39844201018	2
0	5941	13401.368541131607	1
0	5957	13430.973600480158	2
0	5964	13467.769348789858	1
0	5968	13471.138260737426	0
0	5994	13529.091736829356	1
0	5999	13543.903054212389	2
0	6000	13544.638287005407	1
0	6006	13549.67058270756	2
0	6007	13561.024461282999	1
0	6030	13581.158490816922	2
0	6033	13581.669602940062	3
0	6036	13588.006336675722	4
0	6054	13638.715506857509	3
0	6058	13640.746317249312	2
0	6083	13705.970372488974	1
0	6097	13723.962895551062	0
0	6117	13765.543348292982	1
0	6128	13791.182041428453	2
0	6138	13814.405501182819	1
0	6144	13816.135795696877	2
0	6145	13824.312202071241	1
0	6163	13876.377775006511	0
0	6168	13885.533706145312	1
0	6177	13895.53899629384	2
0	6180	13910.729166432517	1
0	6189	13917.590021636506	2
0	6192	13920.699171392149	3
0	6202	13946.907961420616	2
0	6213	13957.529441131604	3
0	6229	13989.380319311762	2
0	6251	14034.707893006966	3
0	6252	14041.248397066909	2
0	6258	14041.707762625463	3
0	6264	14051.771881199934	4
0	6267	14060.204081279578	5
0	6273	14069.847154168867	4
0	6282	14096.098962796663	3
0	6297	14124.686471731647	4
0	6306	14145.49580175181	3
0	6312	14155.185389531691	2
0	6321	14163.275132859022	3
0	6327	14172.761875872207	4
0	6339	14197.087597871272	3
0	6351	14212.817106884436	4
0	6354	14222.793695700204	5
0	6357	14223.387853422303	6
0	6366	14239.851913303899	5
0	6383	14268.156362118337	6
0	6390	14290.097932554712	5
0	6397	14310.317984078414	4
0	6408	14324.917888456033	5
0	6412	14356.15852552394	4
0	6435	14388.3053000999	3
0	6450	14426.572200926226	2
0	6463	14449.501325189521	1
0	6474	14462.217326828376	2
0	6485	14502.649912514924	1
0	6504	14529.96616837249	0
0	6513	14541.361023334562	1
0	6520	14563.337224970393	0
0	6525	14567.124382140899	1
0	6531	14591.329445149316	0
0	6644	14874.860795627538	1
0	6647	14881.072329555779	2
0	6651	14895.787230138034	1
0	6659	14912.424216307649	2
0	6662	14933.793996235929	1
0	6675	14961.644345099219	0
0	6681	14979.431230851459	1
0	6685	14986.522845635642	0
0	6696	15000.203359108991	1
0	6705	15015.033742171341	2
0	6719	15028.975226300947	3
0	6722	15029.085425558494	4
0	6725	15035.551546133434	5
0	6735	15069.591761168245	4
0	6743	15074.55085117326	5
0	6744	15075.324370918218	4
0	6761	15106.421059276684	5
0	6768	15130.277575119669	4
0	6776	15143.526595344814	5
0	6777	15163.466557028925	4
0	6786	15168.565625971129	5
0	6795	15185.66024747406	6
0	6803	15199.880257756352	7
0	6810	15211.307764897745	6
0	6816	15216.867718596308	7
0	6819	15228.982691682483	8
0	6825	15243.972505799496	7
0	6844	15288.849293115616	6
0	6852	15295.546933833571	7
0	6855	15296.623538441538	8
0	6862	15310.832315836792	7
0	6874	15344.811667802834	8
0	6881	15358.217205574956	9
0	6887	15366.126567444679	10
0	6888	15381.565919153879	9
0	6895	15384.029698045305	8
0	6903	15404.263859600589	9
0	6911	15421.625691980935	10
0	6924	15460.211378612169	9
0	6928	15464.154727398201	8
0	6936	15486.446069490974	9
0	6943	15506.580377849547	8
0	6955	15530.242762348603	7
0	6963	15536.851969830139	8
0	6972	15547.904131380381	9
0	6976	15570.503326173652	8
0	6982	15577.087983706929	7
0	6989	15590.212546456589	8
0	6992	15594.433400444948	9
0	7000	15627.828584784276	8
0	7012	15665.393926229299	7
0	7026	15687.645360996659	8
0	7029	15690.708069323137	9
0	7036	15702.9996519515	8
0	7044	15707.866756887741	9
0	7059	15735.489686077385	8
0	7065	15762.847474620786	9
0	7071	15774.897126955371	10
0	7072	15774.931732555486	9
0	7081	15782.031027114214	8
0	7095	15804.849126122287	9
0	7098	15810.949521026333	10
0	7110	15841.143038195516	9
0	7117	15848.383447787861	8
0	7131	15874.716023754787	9
0	7143	15892.528245737745	10
0	7146	15901.510355852756	11
0	7151	15911.12402330713	12
0	7158	15928.693887164101	11
0	7167	15947.554385104165	10
0	7197	16012.382046507019	9
0	7204	16020.353127910064	8
0	7212	16068.017687095713	7
0	7220	16077.627898065233	8
0	7227	16095.337723222585	9
0	7228	16095.49108736184	8
0	7236	16096.863466728649	9
0	7245	16107.405638593508	10
0	7257	16149.695715290479	9
0	7267	16169.31385382764	8
0	7272	16181.240499734724	9
0	7282	16194.945060895876	8
0	7293	16214.596267851621	9
0	7302	16251.985560120614	8
0	7311	16262.507070363797	9
0	7326	16302.28565287438	8
0	7338	16330.069159489877	9
0	7341	16332.015863742383	8
0	7356	16362.216732810061	7
0	7377	16395.402187640652	8
0	7383	16406.691309937184	7
0	7387	16412.821165795582	6
0	7400	16456.179072958201	7
0	7416	16474.815626845766	6
0	7425	16485.305181158844	7
0	7426	16489.70504744235	6
0	7431	16501.657772928808	7
0	7439	16518.034104047599	8
0	7440	16539.274901764664	7
0	7455	16549.622793487312	8
0	7456	16562.011928339052	7
0	7461	16568.030449839799	8
0	7476	16601.180099063823	9
0	7485	16626.545138433596	8
0	7495	16629.793298389551	7
0	7506	16658.060877847799	8
0	7512	16661.412164097804	9
0	7517	16667.379173769799	10
0	7524	16690.937497576351	9
0	7530	16695.659290861916	10
0	7531	16699.318008773373	9
0	7553	16765.133684485558	10
0	7559	16769.369103812176	11
0	7560	16773.142997285677	10
0	7567	16789.391030306737	9
0	7586	16826.992004049336	10
0	7592	16850.07009961997	9
0	7603	16868.176848594797	8
0	7622	16912.005435171283	7
0	7626	16935.671332773778	6
0	7641	16974.116145105999	5
0	7647	16974.191284244134	6
0	7651	16986.391967132458	5
0	7660	17016.934071052098	4
0	7675	17039.177295763514	3
0	7683	17066.649439541625	4
0	7699	17083.354037453773	3
0	7717	17127.220764112852	2
0	7737	17166.758581544483	1
0	7752	17195.325254669933	0
0	7761	17200.548619842922	1
0	7771	17222.678128300423	0
0	7855	17399.71850502118	1
0	7868	17437.83382631911	2
0	7869	17443.845538459447	1
0	7883	17471.429067929752	2
0	7890	17480.594226543798	1
0	7898	17502.443483887925	2
0	7907	17517.952415847338	3
0	7914	17535.675116972821	2
0	7918	17536.381263196109	1
0	7923	17542.930778336369	2
0	7941	17592.573768283774	3
0	7945	17593.950946115704	2
0	7953	17614.26492227723	3
0	7958	17619.247117114632	4
0	7966	17628.577780593678	3
0	7980	17655.505390111592	4
0	7983	17666.386157751775	5
0	7987	17670.952875267575	4
0	7999	17690.471877210011	3
0	8004	17692.207225131437	4
0	8007	17704.08695334422	5
0	8026	17753.745322808569	4
0	8029	17759.199462110631	3
0	8040	17771.845352629897	4
0	8046	17797.144313965506	3
0	8049	17808.04689006757	2
0	8054	17821.867148475084	3
0	8067	17849.256974085987	4
0	8077	17881.631139304558	3
0	8086	17892.554235630318	2
0	8103	17915.38337164615	3
0	8114	17952.410579631749	4
0	8121	17963.207360809307	3
0	8125	17968.707123798554	2
0	8145	17997.784624228808	3
0	8149	18002.794798399918	2
0	8162	18048.356234188282	1
0	8171	18063.513097586873	0
1	0	0	0
1	47	135.686579386586	1
1	56	157.40435657846	0
1	64	175.477697690616	1
1	69	193.038688164212	0
1	91	249.096829205359	1
1	96	260.024556450121	0
1	127	328.054883034905	1
1	132	344.482044722881	0
1	164	413.712596697081	1
1	169	428.28824475152	0
1	184	472.114653847549	1
1	192	484.85797789345	0
1	298	759.641885275789	1
1	300	761.756005579144	0
1	356	880.399154220188	1
1	358	897.989895969911	0
1	455	1077.662923551884	1
1	460	1105.962380043739	0
1	469	1138.439447606548	1
1	473	1144.235306524292	0
1	520	1294.300128775957	1
1	521	1297.936492928621	0
1	546	1376.077289840498	1
1	553	1414.519492478391	0
1	598	1539.304802249733	1
1	604	1560.047295526239	0
1	616	1589.111089265437	1
1	618	1589.902781067002	0
1	625	1603.507662703174	1
1	633	1615.21531976451	0
1	645	1668.416607109702	1
1	648	1686.805072843789	0
1	685	1788.519280788289	1
1	692	1805.395720677607	0
1	719	1859.963385160221	1
1	726	1875.052638068638	0
1	758	1942.242269237683	1
1	765	1948.651318973529	0
1	790	2015.060087262674	1
1	808	2047.714499937414	0
1	826	2086.544929243643	1
1	832	2098.541410550608	0
1	860	2156.094614080977	1
1	879	2181.977981001327	0
1	929	2319.337139710196	1
1	942	2338.183767108566	0
1	989	2408.567255653641	1
1	994	2424.008158846536	0
1	1133	2724.434895334809	1
1	1135	2733.442097690685	0
1	1168	2813.003654784762	1
1	1170	2814.182587637574	0
1	1211	2886.382539718271	1
1	1225	2913.526341224134	0
1	1264	2966.410255853625	1
1	1276	2995.184753544492	0
1	1282	3031.591701091867	1
1	1284	3032.63885284652	0
1	1292	3048.916515141406	1
1	1297	3051.848404010736	0
1	1343	3149.767491675243	1
1	1345	3156.324452031251	0
1	1358	3177.773333817834	1
1	1363	3187.355795734673	0
1	1369	3227.242753400343	1
1	1374	3229.585810194773	0
1	1381	3235.535768196372	1
1	1396	3252.715639929473	0
1	1405	3281.186343236549	1
1	1407	3282.178620339349	0
1	1454	3366.941556522791	1
1	1459	3395.241829907829	0
1	1475	3423.486107745587	1
1	1480	3430.015752046334	0
1	1520	3496.765498243083	1
1	1530	3520.721672636828	0
1	1562	3589.315607670193	1
1	1564	3593.096917533805	0
1	1592	3662.486953297179	1
1	1606	3691.241623063902	0
1	1630	3733.751880560832	1
1	1638	3762.812088771417	0
1	1652	3787.179617594039	1
1	1660	3801.67749249288	0
1	1697	3894.884741876032	1
1	1704	3909.278549445967	0
1	1712	3912.495738318458	1
1	1720	3941.404245146555	0
1	1724	3953.35254660229	1
1	1726	3954.376356028042	0
1	1766	4029.576840891873	1
1	1768	4034.369652629749	0
1	1792	4099.715724404292	1
1	1794	4118.702918741139	0
1	1803	4143.935426035466	1
1	1805	4146.315413985503	0
1	1809	4169.927745593955	1
1	1811	4171.342370918498	0
1	1840	4230.89737203725	1
1	1842	4248.492759333933	0
1	1863	4314.633389364803	1
1	1867	4339.818390923713	0
1	1877	4386.756769439402	1
1	1879	4399.671630540151	0
1	1903	4462.16406456845	1
1	1908	4465.46038141982	0
1	1937	4544.610559327574	1
1	1948	4572.749207824657	0
1	1976	4625.334436908223	1
1	1978	4633.46564353456	0
1	1996	4692.880048897883	1
1	2007	4722.745072912562	0
1	2032	4771.25127021563	1
1	2044	4781.1333744765	0
1	2063	4816.191661812387	1
1	2065	4822.875932888017	0
1	2069	4843.276619123257	1
1	2086	4864.29933403732	0
1	2219	5150.710006194116	1
1	2221	5153.269294986936	0
1	2246	5217.437066781922	1
1	2254	5235.739233176425	0
1	2276	5258.395132551539	1
1	2282	5262.528502463338	2
1	2287	5285.791141880739	1
1	2290	5290.20202516432	0
1	2302	5325.354524872945	1
1	2304	5327.898501067277	0
1	2311	5342.306264730554	1
1	2313	5350.625694922295	0
1	2353	5417.11228016333	1
1	2358	5430.353123660007	0
1	2387	5503.403220896732	1
1	2398	5529.106893922718	0
1	2450	5652.476692187003	1
1	2452	5654.614946149191	0
1	2573	5899.949147966202	1
1	2575	5902.367860492707	0
1	2599	5968.447751926862	1
1	2602	5984.149747893179	0
1	2735	6333.751976039843	1
1	2740	6352.299065531848	0
1	2762	6394.760819359922	1
1	2773	6432.581944317462	0
1	2783	6450.021642149844	1
1	2794	6461.634207059959	0
1	2810	6488.491542643752	1
1	2811	6491.463877710674	0
1	2897	6645.894161419138	1
1	2902	6667.033119407387	0
1	2936	6746.133818940462	1
1	2938	6751.234440458915	0
1	2962	6815.440645160041	1
1	2967	6827.97552356767	0
1	2995	6892.740664039122	1
1	3007	6920.604292776249	0
1	3029	6971.921103573917	1
1	3034	6998.614075423778	0
1	3065	7063.149270101119	1
1	3079	7091.911050704024	0
1	3221	7375.94012843711	1
1	3226	7382.029736093244	0
1	3238	7413.323114287532	1
1	3240	7416.291824894071	0
1	3257	7446.968166515168	1
1	3271	7472.448854504472	0
1	3278	7488.654308285311	1
1	3283	7500.546851174399	0
1	3293	7531.973994410917	1
1	3301	7540.748247713098	0
1	3308	7562.865730768241	1
1	3313	7575.053624264536	0
1	3353	7655.673990681119	1
1	3355	7661.199045468653	0
1	3383	7716.324014486903	1
1	3387	7734.934094692695	0
1	3410	7782.808210893631	1
1	3427	7827.65455184642	0
1	3440	7845.565742962945	1
1	3445	7858.13514611559	0
1	3452	7864.532358893854	1
1	3457	7883.687995317413	0
1	3467	7918.376829102952	1
1	3469	7922.386901315095	0
1	3496	7964.052150104363	1
1	3498	7965.765805629542	0
1	3536	8021.517098968196	1
1	3541	8042.315701649688	0
1	3629	8234.470514381386	1
1	3634	8256.741131027953	0
1	3647	8278.594755743063	1
1	3651	8297.702625238934	0
1	3728	8448.385754808531	1
1	3733	8455.341169526599	0
1	3746	8468.592921646442	1
1	3754	8488.637935573393	0
1	3785	8558.610716766956	1
1	3790	8561.608283253266	0
1	3829	8671.451984268253	1
1	3831	8682.998308344754	0
1	3845	8699.807599907778	1
1	3850	8714.618071733716	0
1	3893	8804.713965810076	1
1	3895	8809.174071135037	0
1	3950	8944.56400792025	1
1	3961	8950.418853221363	0
1	3992	9022.199064107807	1
1	4000	9042.926776833927	0
1	4085	9206.681726212715	1
1	4090	9234.895803116592	0
1	4100	9251.750426010742	1
1	4107	9267.259000660008	0
1	4123	9297.443813316446	1
1	4127	9304.996462532588	0
1	4193	9461.952598252424	1
1	4194	9463.75669465898	0
1	4265	9611.705843244455	1
1	4267	9611.965853520288	0
1	4319	9745.565643015777	1
1	4330	9768.264500755886	0
1	4360	9825.224146854271	1
1	4372	9850.202303000691	0
1	4376	9868.447840800482	1
1	4387	9901.728384824141	0
1	4393	9917.64772386848	1
1	4402	9940.35681332893	0
1	4408	9956.339882847948	1
1	4409	9957.989527126022	0
1	4608	10519.334699974061	1
1	4609	10519.402507862615	0
1	4736	10806.52257165401	1
1	4738	10812.085466730003	0
1	4793	10937.195369203134	1
1	4794	10943.7018181137	0
1	4930	11289.205793535836	1
1	4932	11303.638526256053	0
1	4936	11322.149884752453	1
1	4938	11335.253196285522	0
1	4945	11338.571024213773	1
1	4953	11362.17225997165	0
1	4978	11408.807165402124	1
1	4980	11410.88211611066	0
1	4993	11447.537534202532	1
1	4998	11449.630755773649	0
1	5044	11548.584257881371	1
1	5049	11571.315252873509	0
1	5084	11642.108723124775	1
1	5086	11647.17705181498	0
1	5117	11701.454869964393	1
1	5134	11722.284098633247	0
1	5180	11820.674193518915	1
1	5182	11823.725022500012	0
1	5225	11889.908922300957	1
1	5236	11914.244945780725	0
1	5270	11987.640376168234	1
1	5275	12008.307675566414	0
1	5282	12018.911358466904	1
1	5296	12044.218215950163	0
1	5300	12054.431833396914	1
1	5310	12075.916317438551	0
1	5320	12089.374134673916	1
1	5331	12102.787170457105	0
1	5345	12117.79928402171	1
1	5347	12121.256352706088	0
1	5393	12226.781560926899	1
1	5395	12232.637919846659	0
1	5435	12289.736953822935	1
1	5449	12328.650921063091	0
1	5480	12402.088628787206	1
1	5485	12410.196777923246	0
1	5513	12475.366005659498	1
1	5524	12504.106626627	0
1	5582	12606.666500827876	1
1	5592	12640.161194627454	0
1	5612	12693.695605804409	1
1	5626	12717.996961657624	0
1	5690	12845.213286343243	1
1	5692	12862.985186621471	0
1	5725	12936.750889150165	1
1	5727	12944.758376680652	0
1	5810	13088.480931852351	1
1	5817	13115.817633884324	0
1	5837	13150.96587228321	1
1	5848	13178.302284647429	0
1	5860	13203.711183697743	1
1	5862	13214.572149674221	0
1	5870	13229.678489955169	1
1	5875	13237.600103113673	0
1	5942	13401.368541131607	1
1	5947	13410.028362330986	0
1	5969	13471.138260737426	1
1	5983	13511.331905582119	0
1	6008	13561.024461282999	1
1	6022	13576.233256633691	0
1	6059	13640.746317249312	1
1	6067	13665.390225655135	0
1	6098	13723.962895551062	1
1	6103	13735.620320207777	0
1	6107	13744.529693945341	1
1	6112	13755.600644550879	0
1	6146	13824.312202071241	1
1	6150	13841.226819870448	0
1	6164	13876.377775006511	1
1	6169	13887.481980547467	0
1	6181	13910.729166432517	1
1	6193	13920.979897990925	0
1	6203	13946.907961420616	1
1	6217	13966.359100734661	0
1	6230	13989.380319311762	1
1	6237	14007.904763878712	0
1	6398	14310.317984078414	1
1	6403	14323.069817851535	0
1	6413	14356.15852552394	1
1	6424	14361.494245817502	0
1	6464	14449.501325189521	1
1	6469	14458.802840200794	0
1	6521	14563.337224970393	1
1	6528	14579.869203170314	0
1	6532	14591.329445149316	1
1	6539	14598.761068992341	2
1	6546	14631.180004565258	1
1	6566	14665.225246368547	2
1	6567	14665.656624450043	1
1	6576	14718.919459186376	0
1	6580	14719.960572892718	1
1	6587	14742.619068600783	0
1	6686	14986.522845635642	1
1	6691	14992.70867214193	0
1	6778	15163.466557028925	1
1	6787	15172.687182132791	0
1	6826	15243.972505799496	1
1	6832	15254.287041414154	0
1	6845	15288.849293115616	1
1	6847	15291.038224980799	0
1	6863	15310.832315836792	1
1	6865	15312.52074057523	0
1	6896	15384.029698045305	1
1	6904	15410.901929033618	0
1	6929	15464.154727398201	1
1	6940	15494.455578999389	0
1	6944	15506.580377849547	1
1	6949	15513.439798000867	0
1	6956	15530.242762348603	1
1	6964	15540.581065120928	0
1	6977	15570.503326173652	1
1	6979	15576.530686513858	0
1	6983	15577.087983706929	1
1	6997	15613.589799913858	0
1	7001	15627.828584784276	1
1	7006	15646.033231859526	0
1	7013	15665.393926229299	1
1	7015	15674.038760841588	0
1	7037	15702.9996519515	1
1	7045	15709.347999260405	0
1	7073	15774.931732555486	1
1	7078	15776.418026253242	0
1	7082	15782.031027114214	1
1	7087	15797.139914386425	0
1	7118	15848.383447787861	1
1	7132	15878.356745712778	0
1	7205	16020.353127910064	1
1	7209	16052.800839176159	0
1	7213	16068.017687095713	1
1	7215	16070.68818514713	0
1	7229	16095.49108736184	1
1	7237	16098.565718586537	0
1	7268	16169.31385382764	1
1	7276	16182.560083838008	0
1	7283	16194.945060895876	1
1	7288	16212.141482919362	0
1	7388	16412.821165795582	1
1	7395	16436.304675013396	0
1	7427	16489.70504744235	1
1	7434	16508.772787530441	0
1	7441	16539.274901764664	1
1	7450	16549.081766409226	0
1	7457	16562.011928339052	1
1	7465	16573.071859006267	0
1	7496	16629.793298389551	1
1	7498	16642.798770046526	0
1	7532	16699.318008773373	1
1	7534	16711.288123052922	0
1	7568	16789.391030306737	1
1	7576	16806.178477728222	0
1	7604	16868.176848594797	1
1	7608	16874.556329197859	0
1	7627	16935.671332773778	1
1	7629	16937.206049501928	0
1	7652	16986.391967132458	1
1	7654	16989.876761614427	0
1	7661	17016.934071052098	1
1	7676	17039.177295763514	2
1	7678	17043.190160763271	1
1	7693	17072.139714446194	0
1	7700	17083.354037453773	1
1	7711	17103.470108360105	0
1	7718	17127.220764112852	1
1	7720	17137.548426555809	0
1	7772	17222.678128300423	1
1	7774	17224.876720631285	0
1	7781	17255.578507848213	1
1	7782	17255.698514764326	0
1	7919	17536.381263196109	1
1	7933	17574.621790790189	0
1	7946	17593.950946115704	1
1	7948	17612.29738100198	0
1	7967	17628.577780593678	1
1	7988	17670.952875267575	2
1	7992	17675.827508939513	1
1	8000	17690.471877210011	2
1	8008	17704.099661811343	1
1	8017	17750.973134950698	0
1	8027	17753.745322808569	1
1	8030	17759.199462110631	2
1	8041	17790.073511459298	1
1	8047	17797.144313965506	2
1	8050	17808.04689006757	3
1	8055	17824.517326485456	2
1	8068	17855.850518489543	1
1	8078	17881.631139304558	2
1	8083	17886.926894630418	1
1	8087	17892.554235630318	2
1	8098	17914.985058874274	1
1	8104	17919.136120268367	0
1	8126	17968.707123798554	1
1	8137	17996.591967782971	0
1	8150	18002.794798399918	1
1	8153	18012.82706841785	0
1	8163	18048.356234188282	1
1	8165	18051.345553114966	0
1	8172	18063.513097586873	1
1	8177	18078.154150548229	0
1	8197	18145.306374773976	1
1	8202	18152.044627298798	0
2	0	0	0
2	11	34.381952720732	1
2	20	88.271711736175	0
2	68	176.050153926171	1
2	77	219.470226296466	0
2	137	344.917541549701	1
2	148	378.427377910399	2
2	152	394.569352343251	1
2	156	397.451151067004	0
2	310	773.973343437108	1
2	317	791.141202793687	2
2	318	791.815502212856	1
2	324	796.189602651509	2
2	325	808.819622206426	1
2	342	851.047354202333	0
2	389	937.678007705367	1
2	413	976.047774654509	2
2	414	981.041096985097	1
2	424	1004.895898743426	0
2	431	1021.420454508359	1
2	442	1048.584857879169	2
2	447	1057.735285973008	1
2	451	1067.801261792832	0
2	593	1531.274150485078	1
2	600	1543.274548985009	0
2	614	1585.335478556878	1
2	627	1609.170544501157	0
2	701	1812.254968497307	1
2	705	1830.8123725973	0
2	711	1834.085084212143	1
2	732	1880.671111096067	0
2	743	1906.857085563727	1
2	744	1910.514907742697	0
2	752	1915.646193373583	1
2	768	1958.3418027536	0
2	774	1960.829756861285	1
2	780	1963.27482223181	2
2	795	2020.491756031236	1
2	799	2030.475481744492	0
2	820	2081.08627715053	1
2	828	2090.054714284851	0
2	854	2144.203477446282	1
2	878	2178.695497163682	2
2	889	2223.413531552864	3
2	894	2224.715329196312	2
2	906	2258.277673750939	1
2	912	2283.315533984533	0
2	920	2295.59235165254	1
2	923	2295.82221665671	2
2	941	2332.774271211654	3
2	945	2343.031657620915	2
2	960	2353.949314418955	3
2	963	2361.128540786489	4
2	964	2363.069929639003	3
2	969	2367.207971971066	4
2	981	2390.202799726062	5
2	984	2394.199910484476	6
2	985	2396.451058062583	5
2	991	2421.711846106355	4
2	1005	2431.281322130834	5
2	1017	2455.368212009013	6
2	1023	2467.686597684696	7
2	1024	2468.702273484505	6
2	1041	2511.661669374639	5
2	1047	2537.809221038398	4
2	1062	2565.316911233686	3
2	1077	2597.884593475589	2
2	1089	2633.11113845935	3
2	1090	2636.709739493913	2
2	1109	2682.295651859808	3
2	1112	2688.607446976664	2
2	1121	2714.07121941496	3
2	1128	2724.311365895756	2
2	1145	2761.120320922692	1
2	1158	2796.85574301827	2
2	1164	2808.315445955121	3
2	1173	2818.526815479476	2
2	1179	2819.34951820693	3
2	1185	2836.954154133279	4
2	1194	2851.371147275358	3
2	1199	2851.639004992484	4
2	1213	2892.158599698101	3
2	1216	2911.72318752721	2
2	1224	2912.170634487663	3
2	1236	2928.369818287274	4
2	1239	2934.20873972185	5
2	1242	2937.01825406095	6
2	1245	2937.260438962182	7
2	1256	2958.986593034306	8
2	1266	2978.202025275791	7
2	1270	2982.871148201986	6
2	1287	3042.103463600134	5
2	1300	3055.753408627549	4
2	1316	3096.293677682686	5
2	1323	3109.591258795151	4
2	1329	3131.575425526458	5
2	1336	3136.1860427124	4
2	1350	3165.319791301609	5
2	1353	3167.558682124486	6
2	1354	3174.229430139835	5
2	1383	3237.156741042574	4
2	1387	3242.358636863996	3
2	1419	3312.664864500705	2
2	1423	3315.27647434825	1
2	1431	3339.823586736663	2
2	1456	3377.65251840629	1
2	1465	3401.476369193638	0
2	1473	3417.928056936737	1
2	1502	3471.371181770505	0
2	1518	3486.456636457042	1
2	1527	3498.273340865133	2
2	1535	3525.22231733895	3
2	1536	3528.765705278499	2
2	1547	3553.06172234742	3
2	1548	3554.934851261264	2
2	1575	3622.232370675398	1
2	1579	3625.553980228087	0
2	1602	3686.24406148124	1
2	1603	3690.737934791712	0
2	1650	3784.269791851739	1
2	1659	3800.852880849638	2
2	1666	3812.962639267946	1
2	1676	3825.547906283361	2
2	1692	3873.402277361674	1
2	1703	3907.242054051596	2
2	1707	3910.809105069167	1
2	1714	3934.063362919303	0
2	1731	3957.702403278693	1
2	1739	3982.037023629725	0
2	1748	4006.682041739618	1
2	1761	4019.602474442194	0
2	1901	4461.144551068561	1
2	1907	4463.640412913773	2
2	1913	4481.457488951598	3
2	1916	4514.777848210263	2
2	1920	4517.992105842229	1
2	1935	4531.925196924152	2
2	1939	4560.853748744419	1
2	1957	4595.919225260443	0
2	1968	4616.336522319781	1
2	1972	4622.958881495709	0
2	2012	4725.115811678639	1
2	2015	4726.568132840754	2
2	2016	4726.635922116481	1
2	2037	4778.667693819073	0
2	2049	4781.588177477875	1
2	2050	4791.332422922806	0
2	2058	4805.883291649233	1
2	2075	4848.437204120214	2
2	2076	4850.241989420486	1
2	2085	4863.677841218048	2
2	2093	4878.28028162316	3
2	2094	4887.254615878888	2
2	2103	4889.406767797731	3
2	2108	4894.411833405792	4
2	2118	4897.876473779359	5
2	2130	4939.522143665648	4
2	2134	4958.497196150512	3
2	2163	5027.752622643863	2
2	2167	5031.18666697105	1
2	2175	5057.9291709276	2
2	2184	5086.41179124032	3
2	2199	5113.080972051383	2
2	2203	5114.280779950784	1
2	2214	5132.456496761335	2
2	2226	5183.342252779775	1
2	2232	5197.972672836508	0
2	2241	5203.081324771169	1
2	2250	5226.174330193242	2
2	2266	5254.407012431832	1
2	2271	5255.906870099002	2
2	2272	5255.93651493054	1
2	2296	5317.716616479536	0
2	2351	5416.141930331647	1
2	2363	5434.451739725854	2
2	2364	5443.447293069963	1
2	2378	5490.732864461283	0
2	2406	5539.557907100736	1
2	2413	5564.248984496356	2
2	2424	5600.562412234419	1
2	2430	5622.488079362372	0
2	2435	5625.976927274131	1
2	2438	5628.362224673633	2
2	2445	5633.138395862631	3
2	2455	5655.411284951649	2
2	2460	5660.486510242688	3
2	2463	5661.799773946226	4
2	2469	5666.470048066991	5
2	2472	5671.321627244506	6
2	2479	5700.712388311337	5
2	2490	5712.866118441484	6
2	2495	5733.158653526775	7
2	2500	5744.925184032045	6
2	2509	5772.797057034368	5
2	2523	5791.687398460574	6
2	2531	5815.180643090048	5
2	2539	5832.761829932874	4
2	2557	5868.457269401101	3
2	2562	5871.09051908536	4
2	2568	5884.304820953713	5
2	2571	5893.199190052815	6
2	2582	5938.762759554724	5
2	2588	5948.528793413916	6
2	2589	5948.712838991591	5
2	2611	6023.51959144809	4
2	2615	6024.493803673419	3
2	2627	6071.768116656496	4
2	2628	6082.736509602519	3
2	2637	6103.21813106279	2
2	2656	6152.815905136355	3
2	2657	6164.204307635042	2
2	2665	6179.443992145266	3
2	2666	6181.060052399359	2
2	2683	6210.50092816492	3
2	2686	6247.489321242307	2
2	2690	6248.169927608161	1
2	2702	6259.377380460867	2
2	2714	6302.355574365974	3
2	2725	6316.819245198505	4
2	2726	6324.231621209898	3
2	2737	6335.083539255609	2
2	2751	6391.168182129049	3
2	2758	6394.09895967492	2
2	2763	6405.099398936667	1
2	2778	6447.660563403195	2
2	2786	6452.549701255139	3
2	2789	6453.427154814183	4
2	2799	6463.629896055861	5
2	2800	6465.743779479844	4
2	2808	6470.711672057791	5
2	2814	6494.712188832337	4
2	2828	6528.80275477375	5
2	2833	6536.24839043652	6
2	2837	6549.316203332487	5
2	2845	6561.609828913618	6
2	2846	6563.50622103999	5
2	2855	6570.062506774758	6
2	2871	6597.274630732595	7
2	2885	6630.994895769363	6
2	2891	6636.40103153978	7
2	2901	6649.579202476533	8
2	2910	6678.478526486533	7
2	2916	6714.756908914626	6
2	2931	6738.972911812791	7
2	2932	6741.521544986506	6
2	2946	6780.024734003427	5
2	2972	6833.631720537773	6
2	2973	6834.291335730942	5
2	2977	6843.812068418031	4
2	2982	6847.771083818849	5
2	2999	6903.516856472551	6
2	3000	6912.300413255533	5
2	3010	6936.2680387434	4
2	3021	6964.707011032602	3
2	3039	7011.40029042469	2
2	3045	7020.202945309275	3
2	3046	7020.503066691772	2
2	3069	7063.760087612356	3
2	3070	7070.457618268932	2
2	3082	7103.792273178396	1
2	3101	7146.518577775461	0
2	3143	7246.037942229397	1
2	3148	7252.212857588245	2
2	3167	7271.007709504842	3
2	3168	7275.117165914108	2
2	3174	7296.123086740826	3
2	3177	7306.970680615277	4
2	3180	7307.077164583327	5
2	3185	7307.305566314198	6
2	3190	7321.622495260571	7
2	3209	7344.338464288101	6
2	3217	7366.189655625268	5
2	3231	7384.553762151478	6
2	3234	7394.701015272987	7
2	3243	7424.118729013257	6
2	3252	7425.366880108593	7
2	3253	7441.931796869759	6
2	3267	7460.812509372976	7
2	3274	7484.943189976417	6
2	3289	7516.592756798111	5
2	3298	7534.974626593329	4
2	3319	7590.309291831799	3
2	3348	7630.109415725789	2
2	3360	7671.451229527085	3
2	3363	7673.308987309471	2
2	3369	7673.793646308233	3
2	3374	7695.400850743564	2
2	3393	7767.156054347536	1
2	3397	7767.183340736092	0
2	3420	7806.131747277192	1
2	3423	7823.09696305273	0
2	3435	7843.272986037056	1
2	3436	7845.205571278478	0
2	3456	7871.987220615625	1
2	3462	7901.007697698439	0
2	3483	7937.654836653919	1
2	3486	7939.841726924658	2
2	3489	7940.206968914496	3
2	3494	7958.067506705907	4
2	3503	7969.504922005967	5
2	3506	7976.614254008259	6
2	3509	7986.447924911736	7
2	3510	7996.223687048949	6
2	3516	7997.351179674548	5
2	3521	7999.769154950044	6
2	3546	8052.242934702429	7
2	3552	8069.90747609595	6
2	3565	8093.461828478059	5
2	3579	8134.430515822246	6
2	3588	8155.01739767458	5
2	3594	8156.496072585141	6
2	3595	8172.359265843076	5
2	3614	8222.382540652121	4
2	3622	8225.21989669257	3
2	3639	8262.385004882858	4
2	3645	8269.319519665706	5
2	3659	8301.465247348663	4
2	3667	8322.666356975393	3
2	3673	8329.9401207441	2
2	3687	8379.623364151591	3
2	3688	8381.987105189319	2
2	3696	8382.195284845583	3
2	3702	8412.171239801802	2
2	3723	8426.60519480762	3
2	3730	8452.747679468112	2
2	3744	8468.39404915057	3
2	3748	8472.888876723528	2
2	3753	8484.600891840899	3
2	3759	8502.842681905705	4
2	3768	8528.43582823039	3
2	3780	8544.079417047044	4
2	3781	8547.818683663518	3
2	3803	8602.522923327002	2
2	3810	8623.842742929854	1
2	3822	8650.438830570399	2
2	3825	8657.590942741119	3
2	3837	8691.559678270169	2
2	3841	8697.62923367044	1
2	3858	8716.40466717077	2
2	3873	8769.047062592034	1
2	3877	8781.401853710224	0
2	3882	8783.128765352538	1
2	3887	8786.434856270492	2
2	3901	8842.903664330586	1
2	3915	8877.693163725443	0
2	3927	8897.223643247483	1
2	3930	8907.314641808453	2
2	3934	8918.962274822546	1
2	3946	8940.785951305565	0
2	3954	8945.488181597549	1
2	3960	8946.531991592778	2
2	3970	8968.609374888994	1
2	3980	8995.124581503812	2
2	3987	9007.226158502916	1
2	3996	9038.403036941731	0
2	4005	9044.026825425221	1
2	4008	9049.450487616056	2
2	4013	9055.780518126193	3
2	4018	9061.750235036382	4
2	4021	9076.949668727411	5
2	4033	9101.242864205731	6
2	4040	9114.313694757645	7
2	4041	9115.086561786068	6
2	4045	9119.395310264058	5
2	4064	9154.740755627245	6
2	4072	9193.12162676848	7
2	4073	9194.173920090405	6
2	4077	9194.90244110792	5
2	4098	9243.373749513792	6
2	4103	9264.948210428073	7
2	4104	9267.031826133626	6
2	4115	9282.309552194292	7
2	4118	9285.4988500444	8
2	4119	9287.736862196102	7
2	4134	9317.061279303696	6
2	4139	9320.146401228048	7
2	4149	9361.468131802752	8
2	4150	9368.989188439255	7
2	4156	9375.427036961499	8
2	4165	9386.016895681789	9
2	4166	9388.699027514169	8
2	4179	9437.988616009596	7
2	4197	9470.877271141229	6
2	4202	9482.101846566257	7
2	4212	9505.029141711301	6
2	4227	9548.567535086054	7
2	4228	9555.834668650399	6
2	4243	9577.335800234465	5
2	4254	9601.21951892522	6
2	4257	9603.36798544644	7
2	4275	9631.846121548855	6
2	4287	9658.453922116693	5
2	4299	9702.418753554176	4
2	4305	9724.994671071159	3
2	4323	9748.499758253798	4
2	4329	9757.402042244187	5
2	4335	9791.417891987553	4
2	4341	9797.382808302895	3
2	4356	9811.436071109867	4
2	4364	9830.142757415774	5
2	4368	9847.120054675756	4
2	4378	9884.89569457543	3
2	4386	9901.08825100447	4
2	4394	9919.192425027191	3
2	4414	9960.772591183252	4
2	4415	9966.609719918635	3
2	4421	9996.390336377143	2
2	4436	10031.286555811861	1
2	4444	10041.940711988601	2
2	4450	10081.740392010231	1
2	4454	10094.286914652932	0
2	4468	10113.394399442712	1
2	4471	10131.300097950121	0
2	4477	10134.845229378603	1
2	4483	10196.018167534831	0
2	4511	10256.389516716625	1
2	4512	10277.945691829103	0
2	4526	10288.387093398607	1
2	4529	10292.799597902654	2
2	4533	10303.554580041141	1
2	4541	10321.565643321049	2
2	4550	10346.327152020716	3
2	4553	10361.027451497553	2
2	4560	10387.031124985388	1
2	4577	10427.10945552359	2
2	4584	10438.885247923758	1
2	4592	10480.049175877855	0
2	4598	10489.615365191312	1
2	4606	10514.901112684038	2
2	4614	10552.611543183087	1
2	4618	10556.086166871902	0
2	4623	10562.295731902193	1
2	4630	10569.58907266836	2
2	4636	10576.672514175292	3
2	4643	10602.898331730447	4
2	4646	10616.668693589181	3
2	4653	10630.359294435548	2
2	4658	10635.580982854686	3
2	4664	10662.328078679203	2
2	4669	10672.312886410316	3
2	4676	10706.159833228534	2
2	4688	10728.027380000984	1
2	4693	10737.212772783071	2
2	4703	10743.832975115796	3
2	4704	10758.25062627148	2
2	4712	10769.353914849409	3
2	4721	10778.166933981145	4
2	4729	10790.445632567988	3
2	4743	10813.505430796333	4
2	4744	10817.240189814419	3
2	4765	10862.145049272814	4
2	4766	10864.444747111008	3
2	4781	10911.848909749211	2
2	4787	10916.727925409804	3
2	4797	10956.765120904742	2
2	4805	10966.126152694065	3
2	4808	10985.694052500316	2
2	4817	11018.963470755627	1
2	4825	11052.115729121729	0
2	4830	11059.577355535878	1
2	4844	11090.03853516384	0
2	4850	11123.036916357543	1
2	4853	11124.795272443699	0
2	5038	11533.209103901525	1
2	5048	11568.470269686287	2
2	5052	11572.997917140976	1
2	5059	11578.471642345559	0
2	5067	11594.412086981579	1
2	5077	11632.301436657215	0
2	5082	11640.394251020013	1
2	5097	11672.005238627074	0
2	5121	11706.510285602568	1
2	5122	11712.459447540224	0
2	5127	11713.478211203093	1
2	5130	11713.552544629922	2
2	5139	11741.146761733189	1
2	5145	11750.849167412164	2
2	5157	11776.024090292487	1
2	5165	11787.416889138707	2
2	5170	11804.751573866165	1
2	5178	11814.582559523401	2
2	5187	11827.720922896204	3
2	5193	11839.341234012846	4
2	5200	11849.172584670055	5
2	5203	11851.149607044412	6
2	5204	11858.177233282668	5
2	5213	11866.434712352965	6
2	5220	11884.822009201443	7
2	5221	11888.441085114896	6
2	5230	11909.594247882209	5
2	5235	11913.525526740096	6
2	5255	11966.201626566613	5
2	5266	11982.675828810367	4
2	5280	12013.092020351904	5
2	5286	12031.257168769066	4
2	5292	12035.021906148436	5
2	5293	12035.772699694347	4
2	5315	12084.576146882494	5
2	5324	12092.25618826376	6
2	5334	12104.186355592079	5
2	5338	12109.972441174659	4
2	5359	12143.700912090534	5
2	5368	12174.822447303243	6
2	5369	12190.769242270256	5
2	5377	12195.298922744607	4
2	5382	12196.49165933272	5
2	5388	12212.962286818712	6
2	5400	12235.313339717488	7
2	5403	12240.442080796157	8
2	5406	12240.759348759843	9
2	5416	12262.609117337155	10
2	5419	12263.18457595702	11
2	5420	12269.565512042902	10
2	5427	12287.260639838662	9
2	5439	12299.0785690618	10
2	5442	12312.457987285498	11
2	5454	12331.367485133702	12
2	5455	12332.167941122066	11
2	5460	12339.696124929253	12
2	5466	12365.79686977517	11
2	5471	12370.351090113883	12
2	5482	12407.134303396496	11
2	5490	12411.914714573956	12
2	5494	12431.253257421573	11
2	5504	12451.49910872702	12
2	5517	12480.408327089229	11
2	5521	12499.126087850952	10
2	5529	12510.706145999218	11
2	5537	12524.19458032938	12
2	5555	12557.589345875111	11
2	5562	12564.702991767869	10
2	5571	12570.654162514483	11
2	5588	12620.644813214982	12
2	5591	12629.182459849415	13
2	5597	12641.291240645765	14
2	5598	12655.516305490339	13
2	5602	12661.421815990685	12
2	5620	12715.046523354906	11
2	5623	12716.420371121486	10
2	5639	12754.459222216035	11
2	5646	12756.674148956053	12
2	5662	12793.684397863783	11
2	5665	12797.713060983001	10
2	5688	12842.958359794547	11
2	5699	12868.337755500375	12
2	5705	12889.184035698236	11
2	5712	12901.393687039884	10
2	5735	12952.922523755031	11
2	5738	12961.721405047622	12
2	5744	12982.821373399263	11
2	5750	12986.564262206899	12
2	5753	12989.344047446176	13
2	5756	12990.556225204179	14
2	5757	12995.294308435709	13
2	5786	13035.885931229063	14
2	5795	13059.984881168225	13
2	5803	13079.655656388406	12
2	5814	13091.348600167298	13
2	5820	13138.170941008067	12
2	5832	13149.141523321423	13
2	5835	13149.328079624071	14
2	5839	13162.837407578123	13
2	5844	13164.51776878677	14
2	5853	13189.574017529776	15
2	5865	13226.940125933744	14
2	5874	13234.158199617658	15
2	5880	13257.463295565407	14
2	5889	13267.80676188469	15
2	5897	13291.623834247923	14
2	5905	13314.424533854192	13
2	5919	13337.53567417439	14
2	5927	13367.263632731036	13
2	5937	13387.094396265819	14
2	5938	13391.987487531172	13
2	5952	13411.799109459545	14
2	5960	13444.50076897444	13
2	5973	13477.107500545824	14
2	5976	13488.66228761679	13
2	5982	13508.442882543748	14
2	5986	13515.124115612508	13
2	6012	13566.891677558087	14
2	6017	13570.366108600354	15
2	6018	13573.070632435367	14
2	6025	13577.078793212973	13
2	6042	13600.398823377447	14
2	6047	13613.281076742782	15
2	6050	13634.408476653977	14
2	6061	13647.850420668721	13
2	6066	13660.159807834434	14
2	6072	13666.398994081099	15
2	6082	13700.840319822855	16
2	6087	13711.754871157806	15
2	6091	13715.928585209546	14
2	6096	13717.791953694643	15
2	6118	13779.337573546009	14
2	6131	13801.694572541131	13
2	6137	13814.399245566108	14
2	6153	13857.334688777132	13
2	6157	13864.40336639743	12
2	6162	13870.33359958941	13
2	6183	13914.963257440213	12
2	6196	13932.358042849841	11
2	6207	13953.376136083151	12
2	6210	13956.977951056784	13
2	6216	13965.169404650812	14
2	6220	13976.230201757827	13
2	6228	13983.275679916734	14
2	6236	13996.681584392342	15
2	6240	14009.411725183394	14
2	6244	14028.699216556497	13
2	6268	14060.311582901414	12
2	6290	14119.448775982689	13
2	6291	14122.474388499593	12
2	6298	14127.579516516858	11
2	6303	14140.463293084148	12
2	6324	14167.346959528853	13
2	6330	14176.816552574082	14
2	6331	14177.710246353406	13
2	6345	14204.928860502207	14
2	6346	14210.300500274836	13
2	6365	14234.804859332784	14
2	6374	14245.324372324477	15
2	6375	14256.107219524847	14
2	6380	14266.004222922543	15
2	6384	14271.117539331527	14
2	6396	14299.165543977704	15
2	6400	14317.980823571046	14
2	6415	14356.998141148313	13
2	6423	14358.864170029547	14
2	6432	14374.32393394448	15
2	6441	14402.317296700833	14
2	6449	14411.96716078164	15
2	6454	14430.519064031305	14
2	6457	14441.16472686034	13
2	6468	14454.550994609096	14
2	6482	14479.059366483351	15
2	6491	14514.521643862718	16
2	6492	14515.623636040539	15
2	6496	14525.373945941006	14
2	6501	14525.460145839746	15
2	6510	14541.086033377184	16
2	6519	14560.305347408649	17
2	6534	14595.695352941817	16
2	6542	14606.380552310637	17
2	6543	14623.59892589458	16
2	6554	14644.193854053294	17
2	6555	14654.935810932115	16
2	6572	14714.375547677011	15
2	6583	14722.165611822247	16
2	6584	14741.04356917264	15
2	6595	14766.380058086845	16
2	6602	14794.668612212411	17
2	6603	14798.684662600034	16
2	6613	14812.717952953202	17
2	6616	14816.921104070094	16
2	6622	14833.438509249356	17
2	6631	14853.901273947323	18
2	6632	14857.25750910269	17
2	6636	14858.989969896337	16
2	6641	14868.920271500219	17
2	6666	14946.020277992027	16
2	6670	14955.918948337845	15
2	6690	14986.66638340742	16
2	6699	15005.915057102567	17
2	6702	15012.396305357018	18
2	6710	15023.507223425428	17
2	6716	15027.470538835493	18
2	6730	15044.5616198613	19
2	6731	15064.536294052387	18
2	6748	15077.386603581913	17
2	6758	15101.933035253448	18
2	6762	15110.083984804416	17
2	6780	15165.212549890393	16
2	6792	15178.992322221411	17
2	6798	15191.76573324752	18
2	6804	15207.655398256641	17
2	6824	15240.842318279439	18
2	6828	15247.77407886066	17
2	6835	15258.677651639313	16
2	6843	15275.220038259488	17
2	6858	15306.225671447895	16
2	6875	15346.391960463326	15
2	6882	15365.614490688497	14
2	6894	15382.003901434588	15
2	6914	15432.482079749011	16
2	6915	15449.138388300897	15
2	6921	15457.677181399456	14
2	6933	15480.802808159317	15
2	6948	15511.238436969031	16
2	6952	15524.994734521806	15
2	6967	15541.215082121385	14
2	6993	15602.852430604542	13
2	7003	15631.850256053007	12
2	7020	15686.387743566131	11
2	7032	15696.713254404617	12
2	7033	15699.475995693003	11
2	7050	15720.987714524605	12
2	7053	15733.906107678763	11
2	7068	15768.000332314765	12
2	7075	15775.053680330615	11
2	7090	15798.529517574516	10
2	7101	15819.910088396323	11
2	7104	15822.03518492367	12
2	7109	15830.954983005249	13
2	7122	15858.532021556115	12
2	7126	15859.748245727657	11
2	7137	15887.206751115546	12
2	7154	15928.673685179147	11
2	7162	15930.981085231951	10
2	7176	15969.990075826105	11
2	7179	15974.165017389646	12
2	7184	15985.613408027707	13
2	7187	15992.42000916351	12
2	7193	16011.297264932132	11
2	7203	16012.446882247381	12
2	7221	16085.580513541808	11
2	7233	16095.952854838127	12
2	7242	16102.559555119217	13
2	7246	16114.48477115133	12
2	7251	16115.68925066592	13
2	7263	16168.832331206255	12
2	7275	16181.351013329687	13
2	7279	16187.111836420628	12
2	7296	16238.881661736856	11
2	7306	16258.286124523376	10
2	7314	16275.775159692902	11
2	7322	16298.764337168532	12
2	7325	16302.0133367945	13
2	7330	16321.321929489897	12
2	7345	16336.936293086257	11
2	7350	16348.41854018056	12
2	7362	16365.607066209208	13
2	7365	16367.248679550997	14
2	7366	16380.425455103225	13
2	7374	16394.867312023904	14
2	7380	16399.474081688784	13
2	7401	16458.60087558454	12
2	7407	16459.68967498098	13
2	7408	16462.045044836023	12
2	7422	16474.991484777615	13
2	7443	16540.342417980846	12
2	7447	16545.116940958419	11
2	7464	16568.915145096238	12
2	7471	16593.674020726883	11
2	7479	16617.620863855434	10
2	7484	16625.416109371057	11
2	7494	16629.669358115498	12
2	7507	16659.126146809254	11
2	7518	16678.097280899272	10
2	7540	16721.414681831074	9
2	7547	16758.392103081234	10
2	7554	16768.875334380975	9
2	7572	16794.275032824592	8
2	7581	16808.463822456423	9
2	7591	16848.697061595841	10
2	7596	16854.059904822337	9
2	7602	16866.094549055179	10
2	7611	16880.247970725883	9
2	7619	16902.002028949023	10
2	7632	16953.730908294302	9
2	7638	16964.127314360471	8
2	7659	17012.598965262354	9
2	7665	17024.656980299413	8
2	7671	17027.543499044934	9
2	7672	17033.731777966281	8
2	7686	17068.145637936222	9
2	7692	17070.023995425329	10
2	7698	17076.079069131463	11
2	7704	17088.195950163374	12
2	7707	17100.897375864126	11
2	7714	17105.700823692449	10
2	7728	17145.937031315724	11
2	7731	17156.987542747219	12
2	7734	17166.406092228068	11
2	7741	17167.787824222676	10
2	7751	17189.883797130932	11
2	7758	17198.368984803029	12
2	7767	17215.190494453415	13
2	7768	17220.928764980827	12
2	7787	17259.29279215567	13
2	7788	17265.033520811141	12
2	7796	17284.393370802574	13
2	7799	17294.5020115955	12
2	7818	17341.028472252793	13
2	7819	17341.270165750174	12
2	7823	17349.306217009425	11
2	7831	17355.215805736811	12
2	7847	17387.535073105559	13
2	7852	17399.429443143328	14
2	7856	17417.745637369794	13
2	7862	17418.62699136733	14
2	7863	17428.771173940427	13
2	7873	17444.094765281608	12
2	7886	17472.627813579647	13
2	7899	17504.315207930107	12
2	7910	17519.552184813605	13
2	7911	17533.707603313021	12
2	7926	17550.184658113676	13
2	7932	17565.760746705151	14
2	7936	17586.47207059759	13
2	7959	17624.663272768599	12
2	7965	17626.742811429988	13
2	7969	17641.585823960184	12
2	7974	17647.854606210231	13
2	7986	17670.829741745268	14
2	7995	17689.594825466101	13
2	8011	17706.468816327792	12
2	8020	17750.994410357281	11
2	8032	17764.755913220753	10
2	8058	17827.413385378526	9
2	8062	17840.720148569231	8
2	8076	17877.227745587042	9
2	8082	17885.464896930292	10
2	8089	17908.223257988285	9
2	8095	17911.201719215111	8
2	8109	17929.224786382123	9
2	8118	17961.352756397236	8
2	8130	17970.840440544559	9
2	8133	17974.187929034752	10
2	8136	17979.808420269971	11
2	8146	18000.323149319065	10
2	8159	18035.561045705122	9
2	8174	18063.860031832525	8
2	8190	18126.777345227466	7
2	8198	18146.056559799142	6
2	8209	18206.694768177648	5
2	8213	18230.556311568819	4
2	8219	18267.376140869891	3
2	8225	18311.628058275838	2
2	8231	18314.286690392002	1
2	8239	18388.036347290808	0
3	0	0	0
3	25	101.715790730951	1
3	33	125.016416528042	0
3	50	148.664752912728	1
3	51	153.01273834989	0
3	82	227.382555324949	1
3	87	239.262730848744	0
3	157	397.451151067004	1
3	166	420.044269206921	0
3	191	481.344523210559	1
3	198	496.544119056046	0
3	222	582.822638648573	1
3	233	609.146176963609	0
3	264	678.45417936879	1
3	275	695.834067160619	0
3	326	808.819622206426	1
3	330	811.478525616669	0
3	365	901.150222016047	1
3	366	901.224595268388	0
3	425	1004.895898743426	1
3	432	1021.687464882609	0
3	452	1067.801261792832	1
3	457	1094.63530731927	0
3	472	1144.201242691938	1
3	478	1163.818743743944	0
3	632	1609.799505481192	1
3	636	1644.258358537767	0
3	665	1737.149639954088	1
3	666	1746.662492193455	0
3	745	1910.514907742697	1
3	747	1913.52003847691	0
3	800	2030.475481744492	1
3	805	2040.402801561964	0
3	836	2115.131995731798	1
3	837	2124.716088735546	0
3	841	2134.508597666155	1
3	861	2156.741763556749	0
3	913	2283.315533984533	1
3	915	2285.847957031223	0
3	965	2363.069929639003	1
3	972	2386.271133163606	0
3	986	2396.451058062583	1
3	992	2421.711846106355	2
3	1000	2425.542457573679	1
3	1018	2464.301037747745	0
3	1025	2468.702273484505	1
3	1033	2493.645296650153	0
3	1042	2511.661669374639	1
3	1044	2512.364034315454	0
3	1048	2537.809221038398	1
3	1054	2542.927129638179	0
3	1078	2597.884593475589	1
3	1080	2601.33762173997	0
3	1091	2636.709739493913	1
3	1093	2640.68742818971	0
3	1195	2851.371147275358	1
3	1203	2866.97527773824	0
3	1214	2892.158599698101	1
3	1217	2911.72318752721	2
3	1228	2913.87523090217	1
3	1251	2951.336621079091	0
3	1271	2982.871148201986	1
3	1273	2987.820361796369	0
3	1301	3055.753408627549	1
3	1308	3085.374778713371	0
3	1337	3136.1860427124	1
3	1339	3148.139276492258	0
3	1355	3174.229430139835	1
3	1360	3184.215273069864	0
3	1388	3242.358636863996	1
3	1399	3261.017530003429	0
3	1424	3315.27647434825	1
3	1447	3360.399087891081	0
3	1457	3377.65251840629	1
3	1462	3399.918578827739	0
3	1466	3401.476369193638	1
3	1477	3429.186559754284	0
3	1511	3483.345825303054	1
3	1522	3497.054211339916	0
3	1549	3554.934851261264	1
3	1551	3555.771599259008	0
3	1580	3625.553980228087	1
3	1588	3658.041385425165	0
3	1604	3690.737934791712	1
3	1609	3695.976702606702	0
3	1613	3697.583832020243	1
3	1619	3726.082278954527	0
3	1637	3762.116063536693	1
3	1641	3769.418969652361	0
3	1667	3812.962639267946	1
3	1669	3814.89555923359	0
3	1715	3934.063362919303	1
3	1717	3941.025257396446	0
3	1772	4045.648481340901	1
3	1775	4057.773993497495	0
3	1783	4072.025106345435	1
3	1788	4084.118514815156	0
3	1798	4124.639385627329	1
3	1799	4141.519593422438	0
3	1851	4292.613808630271	1
3	1859	4306.020095406734	0
3	1921	4517.992105842229	1
3	1940	4560.853748744419	2
3	1942	4567.046941780013	1
3	1954	4587.29343161883	0
3	1958	4595.919225260443	1
3	1969	4616.834020087741	0
3	1973	4622.958881495709	1
3	1982	4654.240574888707	2
3	1983	4655.329443504657	1
3	1992	4686.269822848968	0
3	2051	4791.332422922806	1
3	2053	4795.461043023011	0
3	2135	4958.497196150512	1
3	2140	4966.672867012489	0
3	2168	5031.18666697105	1
3	2170	5047.592789159234	0
3	2204	5114.280779950784	1
3	2215	5150.361209213411	0
3	2233	5197.972672836508	1
3	2251	5233.792826332376	0
3	2267	5254.407012431832	1
3	2273	5255.93651493054	2
3	2278	5262.421689343849	1
3	2284	5284.277049202173	0
3	2297	5317.716616479536	1
3	2300	5319.991355330921	2
3	2307	5333.772892812116	1
3	2320	5364.78028294468	0
3	2329	5382.234822785999	1
3	2330	5397.996662746383	0
3	2390	5516.048404848189	1
3	2401	5529.795934379589	0
3	2431	5622.488079362372	1
3	2446	5637.663498678189	0
3	2456	5655.411284951649	1
3	2464	5662.319537943266	0
3	2480	5700.712388311337	1
3	2485	5712.054051334466	0
3	2501	5744.925184032045	1
3	2503	5751.899431479417	0
3	2510	5772.797057034368	1
3	2512	5782.166492181883	0
3	2540	5832.761829932874	1
3	2542	5836.1266894249	0
3	2558	5868.457269401101	1
3	2563	5877.490491817949	0
3	2590	5948.712838991591	1
3	2595	5955.363356549599	0
3	2616	6024.493803673419	1
3	2618	6056.770122412838	0
3	2629	6082.736509602519	1
3	2634	6089.897920466828	0
3	2638	6103.21813106279	1
3	2640	6111.694112255383	0
3	2667	6181.060052399359	1
3	2669	6181.147381954797	0
3	2691	6248.169927608161	1
3	2709	6273.671978429755	0
3	2738	6335.083539255609	1
3	2746	6378.166859758796	0
3	2759	6394.09895967492	1
3	2764	6405.099398936667	2
3	2770	6416.343615369924	1
3	2779	6449.076376674557	0
3	2801	6465.743779479844	1
3	2803	6465.770408293034	0
3	2815	6494.712188832337	1
3	2817	6500.35100592107	0
3	2847	6563.50622103999	1
3	2859	6574.307080281113	0
3	2917	6714.756908914626	1
3	2919	6718.710984574696	0
3	2933	6741.521544986506	1
3	2941	6759.71580825449	0
3	2947	6780.024734003427	1
3	2949	6782.736558273954	0
3	2978	6843.812068418031	1
3	2985	6867.632720581523	0
3	3011	6936.2680387434	1
3	3013	6939.620510138595	0
3	3022	6964.707011032602	1
3	3031	6974.684173312249	0
3	3047	7020.503066691772	1
3	3054	7042.990034933369	0
3	3071	7070.457618268932	1
3	3076	7080.434713799505	0
3	3083	7103.792273178396	1
3	3085	7107.332215584597	0
3	3218	7366.189655625268	1
3	3223	7379.428597345148	0
3	3254	7441.931796869759	1
3	3268	7464.449717846151	0
3	3275	7484.943189976417	1
3	3286	7511.276338958635	0
3	3290	7516.592756798111	1
3	3295	7533.422013090234	0
3	3299	7534.974626593329	1
3	3310	7567.485621585437	0
3	3320	7590.309291831799	1
3	3324	7594.174850743575	0
3	3398	7767.183340736092	1
3	3415	7796.810854242228	0
3	3437	7845.205571278478	1
3	3448	7858.146907310985	0
3	3473	7923.09530097037	1
3	3478	7935.691333737983	0
3	3517	7997.351179674548	1
3	3532	8018.030111422057	0
3	3566	8093.461828478059	1
3	3568	8095.465166133835	0
3	3596	8172.359265843076	1
3	3604	8185.334008152261	0
3	3623	8225.21989669257	1
3	3631	8249.640151668605	0
3	3668	8322.666356975393	1
3	3670	8327.789218272848	0
3	3674	8329.9401207441	1
3	3678	8371.727564322489	0
3	3689	8381.987105189319	1
3	3703	8412.171239801802	2
3	3705	8414.295928905135	1
3	3724	8441.669750126807	0
3	3731	8452.747679468112	1
3	3739	8467.307860888127	0
3	3749	8472.888876723528	1
3	3763	8514.003069522155	0
3	3769	8528.43582823039	1
3	3771	8542.465785995442	0
3	3782	8547.818683663518	1
3	3793	8575.133898074939	0
3	3811	8623.842742929854	1
3	3813	8630.775077362352	0
3	3842	8697.62923367044	1
3	3859	8717.29125278995	0
3	3878	8781.401853710224	1
3	3898	8817.787235998119	0
3	3902	8842.903664330586	1
3	3906	8847.41653518465	0
3	3935	8918.962274822546	1
3	3939	8924.206128163937	0
3	3947	8940.785951305565	1
3	3967	8955.490573501874	0
3	3971	8968.609374888994	1
3	3973	8970.856566487507	0
3	4046	9119.395310264058	1
3	4057	9138.663757569219	0
3	4078	9194.90244110792	1
3	4093	9240.825261461555	0
3	4105	9267.031826133626	1
3	4110	9274.315621439537	0
3	4120	9287.736862196102	1
3	4124	9304.20451847038	0
3	4135	9317.061279303696	1
3	4140	9322.246291734899	0
3	4198	9470.877271141229	1
3	4203	9484.161967651732	0
3	4213	9505.029141711301	1
3	4218	9541.25092915341	0
3	4229	9555.834668650399	1
3	4244	9577.335800234465	2
3	4249	9580.151633736165	1
3	4261	9610.918801911379	0
3	4276	9631.846121548855	1
3	4278	9649.102671033137	0
3	4306	9724.994671071159	1
3	4308	9732.94747321953	0
3	4342	9797.382808302895	1
3	4348	9804.668887127732	0
3	4379	9884.89569457543	1
3	4381	9886.541287064568	0
3	4422	9996.390336377143	1
3	4427	10003.03406631801	0
3	4437	10031.286555811861	1
3	4439	10040.034541543832	0
3	4455	10094.286914652932	1
3	4457	10099.499401518215	0
3	4488	10206.071752272136	1
3	4503	10230.828468685313	0
3	4513	10277.945691829103	1
3	4515	10278.132043351304	0
3	4561	10387.031124985388	1
3	4565	10408.370256763613	0
3	4619	10556.086166871902	1
3	4631	10570.913581572754	0
3	4654	10630.359294435548	1
3	4661	10657.574617164973	0
3	4665	10662.328078679203	1
3	4673	10691.053587500258	0
3	4677	10706.159833228534	1
3	4679	10710.646261110567	0
3	4689	10728.027380000984	1
3	4698	10743.568279609442	0
3	4705	10758.25062627148	1
3	4713	10776.071758223553	0
3	4730	10790.445632567988	1
3	4732	10804.163560125426	0
3	4745	10817.240189814419	1
3	4747	10819.035238867029	0
3	4798	10956.765120904742	1
3	4800	10956.998260235673	0
3	4809	10985.694052500316	1
3	4811	11010.762264446064	0
3	4818	11018.963470755627	1
3	4820	11028.471378969204	0
3	4826	11052.115729121729	1
3	4831	11061.568403895806	0
3	4885	11201.184900870934	1
3	4896	11219.048072681907	0
3	4957	11371.649041448415	1
3	4962	11373.075349794232	0
3	5060	11578.471642345559	1
3	5074	11619.566935814561	0
3	5078	11632.301436657215	1
3	5089	11649.798243011677	0
3	5098	11672.005238627074	1
3	5100	11683.986558417022	0
3	5123	11712.459447540224	1
3	5131	11713.989763100008	0
3	5171	11804.751573866165	1
3	5173	11813.011691671408	0
3	5222	11888.441085114896	1
3	5227	11898.761940030234	0
3	5231	11909.594247882209	1
3	5242	11926.261424179769	0
3	5267	11982.675828810367	1
3	5272	11990.6243125929	0
3	5294	12035.772699694347	1
3	5302	12054.52928188716	0
3	5339	12109.972441174659	1
3	5341	12115.600398364094	0
3	5378	12195.298922744607	1
3	5383	12202.958605357671	0
3	5428	12287.260639838662	1
3	5446	12315.096799393075	0
3	5456	12332.167941122066	1
3	5461	12342.025531278261	0
3	5467	12365.79686977517	1
3	5476	12387.43088887881	0
3	5483	12407.134303396496	1
3	5491	12424.464827226831	0
3	5495	12431.253257421573	1
3	5497	12435.190337450923	0
3	5522	12499.126087850952	1
3	5530	12514.170992433163	0
3	5563	12564.702991767869	1
3	5572	12588.514104028379	0
3	5603	12661.421815990685	1
3	5617	12705.64857522394	0
3	5621	12715.046523354906	1
3	5624	12716.420371121486	2
3	5632	12733.174187969437	1
3	5653	12771.6694758511	0
3	5663	12793.684397863783	1
3	5666	12797.713060983001	2
3	5671	12807.775367785398	1
3	5683	12832.8982162399	0
3	5713	12901.393687039884	1
3	5715	12913.79938285279	0
3	5758	12995.294308435709	1
3	5773	13018.059937258961	0
3	5804	13079.655656388406	1
3	5806	13082.95484039681	0
3	5840	13162.837407578123	1
3	5845	13178.124087009706	0
3	5906	13314.424533854192	1
3	5910	13326.05079729695	0
3	5939	13391.987487531172	1
3	5944	13408.875237268745	0
3	5987	13515.124115612508	1
3	5989	13529.008939026012	0
3	6026	13577.078793212973	1
3	6037	13596.910368025525	0
3	6062	13647.850420668721	1
3	6073	13667.715292642434	0
3	6092	13715.928585209546	1
3	6100	13724.55577008287	0
3	6119	13779.337573546009	1
3	6121	13781.84071501593	0
3	6158	13864.40336639743	1
3	6172	13892.356526505984	0
3	6197	13932.358042849841	1
3	6199	13946.625426798277	0
3	6221	13976.230201757827	1
3	6223	13977.558532657643	0
3	6245	14028.699216556497	1
3	6259	14045.089197446988	0
3	6269	14060.311582901414	1
3	6277	14076.386970188364	0
3	6299	14127.579516516858	1
3	6316	14156.57724539999	0
3	6332	14177.710246353406	1
3	6336	14185.098254440802	0
3	6347	14210.300500274836	1
3	6358	14229.637364470262	0
3	6376	14256.107219524847	1
3	6385	14271.117539331527	2
3	6387	14279.846301513978	1
3	6401	14317.980823571046	2
3	6409	14332.292122976975	1
3	6416	14356.998141148313	2
3	6418	14357.660370052248	1
3	6427	14373.695110804342	0
3	6455	14430.519064031305	1
3	6458	14441.16472686034	2
3	6460	14442.646273930656	1
3	6475	14472.220411511747	0
3	6497	14525.373945941006	1
3	6514	14554.94366769407	0
3	6544	14623.59892589458	1
3	6549	14633.904794829171	0
3	6556	14654.935810932115	1
3	6562	14665.117865529566	0
3	6585	14741.04356917264	1
3	6590	14747.660512905254	0
3	6637	14858.989969896337	1
3	6648	14887.572946424596	0
3	6671	14955.918948337845	1
3	6682	14985.516105618152	0
3	6749	15077.386603581913	1
3	6751	15084.88182897451	0
3	6763	15110.083984804416	1
3	6765	15110.582122010859	0
3	6836	15258.677651639313	1
3	6838	15271.13829898355	0
3	6883	15365.614490688497	1
3	6898	15386.124988073567	0
3	6922	15457.677181399456	1
3	6937	15492.605765102667	0
3	6953	15524.994734521806	1
3	6958	15531.574458743251	0
3	6968	15541.215082121385	1
3	6973	15549.339769892576	0
3	7004	15631.850256053007	1
3	7009	15649.08007439107	0
3	7034	15699.475995693003	1
3	7039	15705.462699608765	0
3	7054	15733.906107678763	1
3	7056	15734.880665159657	0
3	7076	15775.053680330615	1
3	7084	15783.042633774131	0
3	7091	15798.529517574516	1
3	7114	15845.143472293388	0
3	7127	15859.748245727657	1
3	7138	15891.304040676539	0
3	7163	15930.981085231951	1
3	7171	15957.960298535645	0
3	7247	16114.48477115133	1
3	7254	16129.50622454364	0
3	7280	16187.111836420628	1
3	7285	16195.344947494561	0
3	7307	16258.286124523376	1
3	7315	16276.754925539801	0
3	7331	16321.321929489897	1
3	7333	16324.313129316916	0
3	7346	16336.936293086257	1
3	7351	16355.302882444069	0
3	7367	16380.425455103225	1
3	7369	16393.924689236173	0
3	7381	16399.474081688784	1
3	7390	16417.465782085547	0
3	7409	16462.045044836023	1
3	7411	16463.814612966908	0
3	7448	16545.116940958419	1
3	7468	16585.844575726274	0
3	7472	16593.674020726883	1
3	7480	16617.620863855434	2
3	7489	16629.612934012807	1
3	7501	16652.746737789034	0
3	7508	16659.126146809254	1
3	7519	16678.097280899272	2
3	7521	16679.270644820373	1
3	7537	16719.371228682565	0
3	7541	16721.414681831074	1
3	7548	16760.750833803899	0
3	7555	16768.875334380975	1
3	7564	16782.231730183434	0
3	7639	16964.127314360471	1
3	7648	16980.942311635863	0
3	7673	17033.731777966281	1
3	7687	17070.012029079906	0
3	7715	17105.700823692449	1
3	7723	17142.096464254718	0
3	7735	17166.406092228068	1
3	7742	17167.787824222676	2
3	7744	17175.433707888444	1
3	7762	17209.803709455794	0
3	7769	17220.928764980827	1
3	7777	17242.378116836652	0
3	7789	17265.033520811141	1
3	7791	17276.943243976002	0
3	7800	17294.5020115955	1
3	7805	17303.058552078132	0
3	7824	17349.306217009425	1
3	7826	17351.687345806331	0
3	7864	17428.771173940427	1
3	7874	17444.094765281608	2
3	7876	17457.513494161089	1
3	7887	17476.037107986699	0
3	7900	17504.315207930107	1
3	7902	17516.888533646501	0
3	7912	17533.707603313021	1
3	7927	17554.43366949312	0
3	7937	17586.47207059759	1
3	7942	17592.586766851722	0
3	7970	17641.585823960184	1
3	7975	17654.107539199089	0
3	8012	17706.468816327792	1
3	8014	17725.586640562489	0
3	8021	17750.994410357281	1
3	8023	17753.04622916913	0
3	8033	17764.755913220753	1
3	8035	17771.143018705138	0
3	8063	17840.720148569231	1
3	8071	17868.722181767912	0
3	8090	17908.223257988285	1
3	8092	17908.618745368381	0
3	8096	17911.201719215111	1
3	8115	17954.899070196734	0
3	8119	17961.352756397236	1
3	8140	17997.351895029372	0
3	8147	18000.323149319065	1
3	8156	18020.137425095882	0
3	8160	18035.561045705122	1
3	8168	18056.659048132073	0
3	8175	18063.860031832525	1
3	8180	18078.420417105305	0
3	8214	18230.556311568819	1
3	8216	18236.701652907447	0
3	8220	18267.376140869891	1
3	8222	18273.289908824616	0
3	8226	18311.628058275838	1
3	8228	18312.990263908696	0
3	8232	18314.286690392002	1
3	8234	18344.668131229776	0
4	34	125.016416528042	125.01641652804
4	52	153.01273834989	137.09524825857
4	55	155.661500246711	121.27954752598
4	57	157.40435657846	112.00143412432
4	70	193.038688164212	126.8725796968
4	76	217.628451883069	106.99185497493
4	88	239.262730848744	111.34091938388
4	97	260.024556450121	134.33447727572
4	103	271.565351660434	107.8937869268
4	109	298.197904011171	170.68460431429
4	125	324.412597728441	148.36244380227
4	133	344.482044722881	148.00325330973
4	145	374.504695871179	120.13749489828
4	167	420.044269206921	129.93044057828
4	170	428.28824475152	157.11434966638
4	173	444.700822706137	135.39603453013
4	175	455.197697483892	136.98253940686
4	193	484.85797789345	144.6645704654
4	199	496.544119056046	151.62657750635
4	202	511.61900771682	159.12222688147
4	208	530.969674954324	152.54229704393
4	214	549.553524186718	188.01470214687
4	228	602.812625608395	212.83876148187
4	234	609.146176963609	130.08237591356
4	244	645.541602110307	120.88114351976
4	259	668.351598474172	180.08751826932
4	276	695.834067160619	96.192979378385
4	286	725.07009836832	118.78080576681
4	288	728.065384901662	114.75257051253
4	301	761.756005579144	137.74550367487
4	307	768.378116922918	120.78382447734
4	329	810.204206638779	147.79473518426
4	331	811.478525616669	96.203003917169
4	341	842.375582900924	109.43748036224
4	347	854.24980624298	189.8673286201
4	359	897.989895969911	216.44950552554
4	367	901.224595268388	127.25125183128
4	377	916.640888351674	227.42929362534
4	379	917.73871443444	126.59751164075
4	398	942.234660965147	146.04505831364
4	403	958.901499289669	247.67298636151
4	419	983.705309810366	215.45238582342
4	428	1017.089584020996	183.43078377234
4	433	1021.687464882609	110.43550261006
4	439	1038.231235655581	119.80072906563
4	458	1094.63530731927	118.58753266476
4	461	1105.962380043739	229.71359187373
4	464	1109.227839316069	171.5498316107
4	474	1144.235306524292	244.39885968139
4	477	1163.419745167612	252.55537852202
4	479	1163.818743743944	142.39828923558
4	490	1184.182448833322	135.59759095415
4	492	1188.59357377939	248.00408650507
4	498	1257.955676226969	310.28170630774
4	510	1280.348391760549	96.455723482638
4	522	1297.936492928621	333.18092829653
4	532	1336.579891796588	313.04718441565
4	534	1358.722485701025	100.63060558504
4	548	1384.660107294897	100.38225989846
4	554	1414.519492478391	125.77886091993
4	561	1452.668549126601	132.35966312602
4	577	1478.102953999386	87.931218014221
4	579	1491.356832782937	118.40356953139
4	605	1560.047295526239	92.910531416245
4	611	1574.640438749439	130.04173764602
4	619	1589.902781067002	127.47650842538
4	634	1615.21531976451	85.13678853774
4	637	1644.258358537767	112.98420805269
4	640	1645.481301703159	106.73375533019
4	647	1686.659135300859	161.74085935289
4	649	1686.805072843789	124.22036439772
4	663	1710.815501276273	113.38839835269
4	667	1746.662492193455	161.32701363658
4	687	1790.104776429332	99.884622978274
4	693	1805.395720677607	97.425528656875
4	713	1834.85065168508	85.664034846731
4	721	1865.518093549153	112.22452133609
4	727	1875.052638068638	98.496800187066
4	740	1895.277914590921	92.471916850036
4	748	1913.52003847691	105.9155703473
4	761	1943.198494036285	130.94352553898
4	766	1948.651318973529	127.02282095668
4	782	1985.066085767659	150.98100155552
4	784	1985.140783972175	111.17491573449
4	806	2040.402801561964	133.54571599824
4	809	2047.714499937414	170.91579100383
4	812	2053.190598881931	159.72432513543
4	814	2072.194723477765	156.54853010418
4	833	2098.541410550608	155.27595526369
4	838	2124.716088735546	163.88633187426
4	843	2135.202954586792	172.25945424341
4	862	2156.741763556749	193.46694132494
4	875	2178.629241762697	97.542964612167
4	880	2181.977981001327	165.65198845911
4	886	2208.206803816724	174.22320037536
4	899	2235.482268124105	78.26284383064
4	905	2247.449227552456	106.71893689247
4	911	2277.924758325788	202.11002343196
4	916	2285.847957031223	144.85116147467
4	938	2331.868199275817	187.66472182953
4	943	2338.183767108566	178.01984206884
4	971	2374.306475228391	209.93188442458
4	973	2386.271133163606	207.57563599992
4	995	2424.008158846536	240.23243411585
4	1001	2425.542457573679	202.12892602081
4	1007	2446.761725966268	121.49542614969
4	1019	2464.301037747745	168.7086860952
4	1028	2484.482880334534	157.3390895723
4	1034	2493.645296650153	197.82307999344
4	1040	2511.272604444052	167.58517893705
4	1045	2512.364034315454	179.5897631038
4	1055	2542.927129638179	188.97781521922
4	1061	2563.995772241478	202.86723145499
4	1070	2575.597299340218	225.6066732589
4	1076	2589.205899870516	236.3959161009
4	1081	2601.33762173997	234.1296497689
4	1094	2640.68742818971	250.48462846365
4	1097	2651.31607776282	257.11616727834
4	1099	2655.989536032001	230.71471550688
4	1111	2688.006410019417	239.00987496798
4	1127	2719.395635672943	288.11431354211
4	1136	2733.442097690685	169.49096643204
[...]
4	4094	9240.825261461555	196.79843603633
4	4108	9267.259000660008	129.75382681225
4	4111	9274.315621439537	224.86513382348
4	4125	9304.20451847038	242.454283434
4	4128	9304.996462532588	140.97410041361
4	4141	9322.246291734899	266.46577360871
4	4144	9341.109835529722	124.64930976597
4	4146	9341.610948531788	264.66127980438
4	4162	9385.081016341078	283.83815213535
4	4178	9416.712483281697	302.39878852405
4	4184	9442.575723056568	128.84157497591
4	4195	9463.75669465898	79.871635381049
4	4204	9484.161967651732	329.42121202449
4	4211	9499.331452789511	109.63268361405
4	4219	9541.25092915341	348.12930238493
4	4232	9559.037993981725	105.90549699996
4	4250	9580.151633736165	336.77788422237
4	4262	9610.918801911379	345.97059148331
4	4268	9611.965853520288	116.50864260086
4	4274	9628.217477256325	84.117560838069
4	4279	9649.102671033137	366.79311883884
4	4286	9657.353455788691	371.85460574429
4	4292	9680.479524485642	111.24295650483
4	4298	9696.34635725516	376.19995602711
4	4304	9702.864013159676	127.61614493672
4	4309	9732.94747321953	371.47934141678
4	4331	9768.264500755886	190.17831665945
4	4334	9777.03129790986	401.60426094836
4	4340	9796.29529359397	190.0458902549
4	4349	9804.668887127732	418.65199144594
4	4358	9812.455734774534	330.35388820828
4	4373	9850.202303000691	236.34112373394
4	4382	9886.541287064568	285.32176813935
4	4388	9901.728384824141	163.34584156839
4	4391	9910.957217668396	362.38968258234
4	4403	9940.35681332893	185.15080221687
4	4406	9949.096139847307	345.72815440087
4	4410	9957.989527126022	152.8902120169
4	4420	9993.940335048969	148.35611675351
4	4428	10003.03406631801	254.53430806421
4	4435	10021.430256594426	97.68445372415
4	4440	10040.034541543832	282.63249929965
4	4446	10069.480346569661	258.04427545979
4	4458	10099.499401518215	269.35664410244
4	4461	10101.604788130404	95.159332891979
4	4470	10129.635270812297	228.54701980783
4	4479	10157.205398155181	196.43280697193
4	4498	10224.386983785613	119.72609783396
4	4504	10230.828468685313	188.88775669671
4	4516	10278.132043351304	164.73764390859
4	4519	10280.187978799959	145.34274942136
4	4538	10316.178678602011	99.516592786481
4	4547	10331.167211159168	113.63937372017
4	4552	10357.150006181789	127.78169669911
4	4564	10399.952765321433	165.56840385952
4	4566	10408.370256763613	151.98074004699
4	4579	10435.78831037206	147.40121697345
4	4589	10461.898159033713	169.09856113106
4	4591	10464.658787584674	161.48291985853
4	4603	10513.053241994702	191.48759867365
4	4610	10519.402507862615	95.5516621263
4	4613	10531.791510296534	93.496489949425
4	4632	10570.913581572754	224.58642955204
4	4645	10603.585031711274	176.47557618768
4	4660	10643.762651156742	78.486780892502
4	4662	10657.574617164973	142.67350448094
4	4674	10691.053587500258	201.43822230895
4	4680	10710.646261110567	148.35052920837
4	4687	10723.955317689021	129.63161545751
4	4699	10743.568279609442	173.97920694108
4	4714	10776.071758223553	199.39924404826
4	4733	10804.163560125426	201.26522839498
4	4739	10812.085466730003	89.323403827444
4	4748	10819.035238867029	183.45425601234
4	4751	10844.617618598869	105.98358481888
4	4753	10849.946960687706	177.63407427739
4	4759	10856.160094979927	94.449900091141
4	4775	10889.091073885498	151.87830110243
4	4780	10898.685961422802	121.35370180983
4	4795	10943.7018181137	159.57156890499
4	4801	10956.998260235673	213.16528511988
4	4807	10978.092591944623	118.7690467104
4	4812	11010.762264446064	241.40834959666
4	4821	11028.471378969204	250.30444498806
4	4824	11045.828013483306	156.71476584827
4	4832	11061.568403895806	248.06297309947
4	4843	11082.149715041159	220.00466576835
4	4852	11123.320727894645	206.59280248484
4	4868	11160.077246200991	193.95109350693
4	4870	11162.755623664138	92.375474470481
4	4879	11179.778866859323	99.410154078376
4	4897	11219.048072681907	159.47071714603
4	4903	11238.279483073325	115.24256671578
4	4915	11254.626113611201	129.2084737022
4	4925	11284.149559125632	100.4401986724
4	4933	11303.638526256053	164.09495384312
4	4939	11335.253196285522	121.43877787264
4	4954	11362.17225997165	147.48375317389
4	4963	11373.075349794232	131.64782120822
4	4966	11380.622933388299	159.53768559759
4	4976	11403.061474743325	127.11618377273
4	4981	11410.88211611066	167.3079993107
4	4999	11449.630755773649	161.66290683074
4	5005	11475.180931376393	122.57264932211
4	5007	11481.759575757559	109.72146580116
4	5023	11504.509856720908	119.76205395586
4	5035	11519.510267996969	162.50104138022
4	5050	11571.315252873509	157.76171037136
4	5069	11595.235222704674	165.47934459194
4	5075	11619.566935814561	109.5961617603
4	5087	11647.17705181498	196.39990192946
4	5090	11649.798243011677	154.30775269836
4	5096	11662.241951543463	221.69697734664
4	5101	11683.986558417022	115.51628873073
4	5132	11713.989763100008	180.78065919848
4	5135	11722.284098633247	233.40411179389
4	5138	11739.044359390796	144.63227240922
4	5147	11755.001412989446	114.60716196943
4	5152	11756.03527885984	251.07197815279
4	5162	11778.650429486868	267.77443599226
4	5174	11813.011691671408	106.50140606884
4	5183	11823.725022500012	246.97186178006
4	5195	11845.29231584431	253.9912949028
4	5197	11846.595291372664	133.11708016957
4	5228	11898.761940030234	185.20939540031
4	5237	11914.244945780725	257.16361692526
4	5243	11926.261424179769	175.4122567676
4	5249	11946.442785547319	159.02589640861
4	5251	11947.746172109298	261.28249364631
4	5273	11990.6243125929	176.0417530695
4	5276	12008.307675566414	314.41705594435
4	5285	12027.51470660645	199.79378371025
4	5297	12044.218215950163	345.06767829114
4	5303	12054.52928188716	205.3566972171
4	5309	12074.624204855366	235.28297084252
4	5311	12075.916317438551	320.44233986915
4	5332	12102.787170457105	263.94302541043
4	5342	12115.600398364094	264.45079131968
4	5348	12121.256352706088	256.49902520036
4	5354	12141.493729714304	275.05901736134
4	5356	12142.797710579193	225.01514722066
4	5365	12169.173206308557	232.23885502588
4	5384	12202.958605357671	289.43307861758
4	5396	12232.637919846659	271.39567752783
4	5408	12242.592518743012	272.63977930195
4	5413	12250.965782795776	366.14377359433
4	5447	12315.096799393075	302.00477904117
4	5450	12328.650921063091	256.74912103221
4	5462	12342.025531278261	307.00362512982
4	5465	12363.395028827063	274.893694206
4	5477	12387.43088887881	302.85474199632
4	5486	12410.196777923246	308.66501994144
4	5492	12424.464827226831	332.20863896307
4	5498	12435.190337450923	291.48942536039
4	5501	12446.452664015202	346.46121651663
4	5516	12477.72234687136	302.89989956812
4	5525	12504.106626627	284.62834535505
4	5531	12514.170992433163	317.67933310044
4	5534	12516.776336028784	378.02618223762
4	5552	12551.933019913991	303.28747476839
4	5554	12552.619297032643	339.65701021393
4	5573	12588.514104028379	348.07202323222
4	5576	12595.09050057046	315.52045257766
4	5585	12615.968494961223	380.65515524374
4	5593	12640.161194627454	177.41336071309
4	5606	12675.312947611896	362.586848906
4	5618	12705.64857522394	443.03945788678
4	5627	12717.996961657624	176.0711807876
4	5633	12733.174187969437	492.41483920959
4	5636	12751.590696731171	222.61364517926
4	5654	12771.6694758511	508.48489989408
4	5657	12773.795578633037	213.40425712737
4	5672	12807.775367785398	508.6967987236
4	5675	12822.387296757348	273.75822241805
4	5684	12832.8982162399	501.5307311062
4	5693	12862.985186621471	159.64356183037
4	5696	12863.878453547975	551.42046626248
4	5704	12888.128780631202	169.98974614511
4	5716	12913.79938285279	574.10325792354
4	5723	12924.882256966068	554.53116685219
4	5728	12944.758376680652	185.57250262958
4	5743	12975.987010563484	213.76351021708
4	5768	13007.862689861586	205.93239397553
4	5774	13018.059937258961	606.14522268501
4	5780	13026.920366269032	200.30947633704
4	5791	13038.660068027187	587.16095930017
4	5807	13082.95484039681	572.24869439759
4	5816	13115.747490230207	591.55290990083
4	5818	13115.817633884324	233.11676634872
4	5825	13141.76641919262	246.81499252271
4	5846	13178.124087009706	607.46992449522
4	5849	13178.302284647429	232.09410919438
4	5858	13198.353610762111	577.70879754713
4	5863	13214.572149674221	245.29181659336
4	5876	13237.600103113673	214.48846553988
4	5879	13253.53769893056	624.35523908114
4	5891	13268.127265728675	260.42225915851
4	5896	13290.989802344902	649.69856169914
4	5909	13320.692302929153	285.67474583938
4	5911	13326.05079729695	571.59157508091
4	5921	13357.013276278868	600.33912732281
4	5923	13362.004210509452	323.61730818514
4	5945	13408.875237268745	565.9168774742
4	5948	13410.028362330986	362.02732611043
4	5954	13429.221376095493	560.88362059512
4	5959	13431.424928119284	239.14900057727
4	5975	13483.335678219546	530.41315446451
4	5984	13511.331905582119	239.98865830028
4	5990	13529.008939026012	567.28753397839
4	5996	13530.780582498624	266.25919457016
4	6014	13569.410937101841	582.84667489494
4	6023	13576.233256633691	213.09313386271
4	6038	13596.910368025525	606.35414282135
4	6044	13605.627996413265	174.65439593311
4	6049	13632.631041013341	643.28699356717
4	6068	13665.390225655135	136.29848882578
4	6074	13667.715292642434	631.82936141337
4	6077	13689.631307671645	598.28270750435
4	6079	13692.941668887705	149.03861467532
4	6101	13724.55577008287	575.41424676145
4	6104	13735.620320207777	154.46182939086
4	6113	13755.600644550879	205.93006184332
4	6122	13781.84071501593	632.51263539186
4	6125	13784.341410476577	202.67180753651
4	6130	13795.316546164289	630.79877737752
4	6149	13832.766525349693	643.19250781992
4	6151	13841.226819870448	253.22048319473
4	6170	13887.481980547467	140.36186860108
4	6173	13892.356526505984	658.19832688833
4	6179	13910.015293464185	642.2085315795
4	6194	13920.979897990925	155.43654969794
4	6200	13946.625426798277	559.53103053246
4	6218	13966.359100734661	175.17705930621
4	6224	13977.558532657643	640.02285848325
4	6233	13994.974742613865	583.17563315432
4	6238	14007.904763878712	191.76896818183
4	6248	14030.301744587307	144.768038442
4	6260	14045.089197446988	567.98169690116
4	6272	14064.112380621775	168.57338432794
4	6278	14076.386970188364	567.94408764462
4	6281	14088.305900610269	170.71587897376
4	6287	14111.167588857072	544.27591129898
4	6305	14141.879148333545	221.1799769414
4	6311	14153.256654896497	195.72721376489
4	6317	14156.57724539999	586.21113679964
4	6335	14179.462484503341	144.75459149637
4	6337	14185.098254440802	584.69943106335
4	6359	14229.637364470262	569.47755663583
4	6362	14233.413463444152	191.70570081869
4	6371	14242.379428536626	190.60754733669
4	6388	14279.846301513978	666.5652247712
4	6404	14323.069817851535	262.86573657196
4	6410	14332.292122976975	665.89312889588
4	6419	14357.660370052248	656.82005022939
4	6425	14361.494245817502	236.80777408585
4	6428	14373.695110804342	655.9031571097
4	6434	14385.508793001952	222.23366014293
4	6440	14400.544750115605	586.1455045495
4	6446	14407.10233635017	234.34046047796
4	6461	14442.646273930656	572.31267434125
4	6470	14458.802840200794	245.98573331636
4	6476	14472.220411511747	518.8442754286
4	6479	14476.173729040411	253.38003334021
4	6484	14485.348769662626	528.37081860584
4	6503	14525.600823608848	302.21297018655
4	6515	14554.94366769407	571.66798777734
4	6527	14576.226911736862	611.05750708605
4	6529	14579.869203170314	311.71284105198
4	6547	14631.180004565258	306.26211610923
4	6550	14633.904794829171	514.45601884648
4	6563	14665.117865529566	668.43628113722
4	6568	14665.656624450043	203.43929762167
4	6571	14708.030127083151	567.566833999
4	6577	14718.919459186376	177.55843585181
4	6588	14742.619068600783	175.49468645988
4	6591	14747.660512905254	580.3135533764
4	6597	14773.127716945025	113.39359772313
4	6599	14773.531275423252	596.71472284917
4	6615	14816.00143286539	611.07257236318
4	6624	14835.495838471362	600.69097913858
4	6649	14887.572946424596	642.24857410012
4	6656	14904.558178172826	638.55395525028
4	6661	14927.049855863824	124.08150702273
4	6674	14958.534904214079	106.03898573691
4	6683	14985.516105618152	626.6519355886
4	6692	14992.70867214193	117.84787651439
4	6707	15019.435568420676	138.3632388649
4	6709	15020.849880159175	721.68433618147
4	6727	15039.473818602871	665.14988465839
4	6740	15071.917192558637	159.49297625099
4	6752	15084.88182897451	672.91466819287
4	6755	15101.430114270321	121.99888341886
4	6766	15110.582122010859	656.03112740176
4	6773	15141.417306044619	662.35793956127
4	6788	15172.687182132791	172.4838230238
4	6800	15192.266558453522	677.7449145908
4	6809	15209.842496714743	194.8087545434
4	6821	15238.524904406255	713.06475856651
4	6833	15254.287041414154	225.31181511321
4	6839	15271.13829898355	730.05226560637
4	6848	15291.038224980799	261.95279942231
4	6857	15299.72286057192	739.41751316327
4	6866	15312.52074057523	276.9691944418
4	6869	15335.469629744831	729.08907743419
4	6871	15341.765698184066	267.21484701081
4	6899	15386.124988073567	741.93113402027
4	6905	15410.901929033618	304.48086975693
4	6908	15414.493795306301	692.32818348405
4	6920	15453.973340210431	310.44674486562
4	6938	15492.605765102667	697.93715289026
4	6941	15494.455578999389	308.79533152533
4	6950	15513.439798000867	344.87417202974
4	6959	15531.574458743251	765.19440065641
4	6965	15540.581065120928	323.71334652462
4	6974	15549.339769892576	715.90126064322
4	6980	15576.530686513858	376.65042875751
4	6986	15577.467400699889	764.74944774669
4	6998	15613.589799913858	384.60710823137
4	7007	15646.033231859526	350.48629802595
4	7010	15649.08007439107	780.15980289085
4	7016	15674.038760841588	377.41522240005
4	7019	15684.520181947948	830.61890800062
4	7040	15705.462699608765	718.79631620135
4	7046	15709.347999260405	364.53633145757
4	7052	15732.007914576552	373.7907090016
4	7057	15734.880665159657	728.96560805709
4	7079	15776.418026253242	410.29145880856
4	7085	15783.042633774131	770.64632841711
4	7088	15797.139914386425	375.51422240549
4	7106	15827.482071560279	423.21821195969
4	7115	15845.143472293388	817.67293345789
4	7121	15851.112730451181	806.55111058988
4	7133	15878.356745712778	341.50477588264
4	7139	15891.304040676539	789.37100542309
4	7148	15903.771004251228	417.32493476025
4	7153	15920.270126159176	741.27780393776
4	7166	15946.243618561398	398.33948718102
4	7172	15957.960298535645	717.11798025621
4	7181	15982.406424446365	392.19387798978
4	7186	15988.635963916095	796.87023066858
4	7192	16009.334291545555	734.11425328607
4	7208	16040.944718965705	658.94081753112
4	7210	16052.800839176159	365.1554781795
4	7216	16070.68818514713	476.25478470218
4	7238	16098.565718586537	407.8576492634
4	7253	16126.512058839958	418.64530195222
4	7255	16129.50622454364	697.02414479463
4	7262	16168.744673024252	687.94186486494
4	7277	16182.560083838008	419.71260921722
4	7286	16195.344947494561	684.10651052553
4	7289	16212.141482919362	437.24435596399
4	7295	16237.91976465165	541.20651024703
4	7301	16243.444314745622	438.59518862333
4	7316	16276.754925539801	555.7672110152
4	7319	16293.868894716979	482.91937369065
4	7334	16324.313129316916	556.31279700215
4	7340	16331.90784147529	457.1918177205
4	7352	16355.302882444069	535.39279404775
4	7355	16358.668389615287	466.14014387754
4	7370	16393.924689236173	571.8895043125
4	7379	16396.922285897535	495.41193004478
4	7391	16417.465782085547	586.5107990803
4	7394	16420.195137976758	532.98838686121
4	7396	16436.304675013396	358.67677694816
4	7412	16463.814612966908	489.64959557726
4	7415	16467.967947860521	556.84392455339
4	7433	16507.4855959986	537.49552017249
4	7435	16508.772787530441	411.90932080179
4	7451	16549.081766409226	453.74404318664
4	7466	16573.071859006267	465.66622041276
4	7469	16585.844575726274	573.39769347889
4	7478	16612.083264024858	430.84276429013
4	7490	16629.612934012807	643.9995259851
4	7499	16642.798770046526	428.2025021949
4	7502	16652.746737789034	550.18718266982
4	7514	16665.016560890426	402.50949052663
4	7522	16679.270644820373	583.31778998225
4	7535	16711.288123052922	315.88593541227
4	7538	16719.371228682565	603.68197801664
4	7544	16727.070750654956	397.00159116508
4	7549	16760.750833803899	579.39982047421
4	7565	16782.231730183434	506.45657049053
4	7571	16790.844028910348	492.07969174182
4	7577	16806.178477728222	349.99940477002
4	7583	16821.792658336847	519.77932154235
4	7588	16829.762270542501	344.45708938366
4	7607	16874.231762557032	525.81322237647
4	7609	16874.556329197859	372.89855626905
4	7616	16889.451550471003	371.4174464234
4	7621	16907.853192273908	542.2461260647
4	7630	16937.206049501928	387.58325601462
4	7637	16956.350120785209	388.31967094541
4	7649	16980.942311635863	613.69363208487
4	7655	16989.876761614427	388.6966625506
4	7664	17019.111925961257	624.24461393735
4	7679	17043.190160763271	385.12928291547
4	7688	17070.012029079906	610.32235409893
4	7694	17072.139714446194	410.72755034839
4	7706	17097.138190952744	622.14670617513
4	7712	17103.470108360105	436.09093459031
4	7721	17137.548426555809	441.88913569389
4	7724	17142.096464254718	573.18131915848
4	7733	17158.61213180394	393.47844731838
4	7745	17175.433707888444	550.01759851739
4	7748	17184.490237127658	415.12113331548
4	7763	17209.803709455794	451.41160637456
4	7775	17224.876720631285	397.88471658195
4	7778	17242.378116836652	612.70875872115
4	7783	17255.698514764326	281.50723052019
4	7792	17276.943243976002	468.47942151958
4	7798	17287.660709382504	221.01126984088
4	7806	17303.058552078132	454.36149048229
4	7813	17325.350834083577	459.2562850284
4	7815	17329.743662661779	129.19504281886
4	7827	17351.687345806331	449.68531685731
4	7840	17373.152806223915	57.301639110478
4	7849	17389.255546270546	376.65658100819
4	7877	17457.513494161089	389.36785622487
4	7880	17461.003281666015	97.7594960272
4	7888	17476.037107986699	448.49360894176
4	7895	17493.663339928563	118.26414378642
4	7903	17516.888533646501	446.86453822117
4	7928	17554.43366949312	466.23771932975
4	7934	17574.621790790189	136.78796447108
4	7943	17592.586766851722	516.50769772026
4	7949	17612.29738100198	212.5788759808
4	7955	17618.976068665897	473.03903735017
4	7976	17654.107539199089	464.22374206816
4	7991	17672.37783878495	515.39029603773
4	7993	17675.827508939513	204.39844100976
4	8009	17704.099661811343	201.65617792342
4	8015	17725.586640562489	527.21765575946
4	8018	17750.973134950698	233.02071910336
4	8024	17753.04622916913	537.85573471572
4	8036	17771.143018705138	511.85022654947
4	8042	17790.073511459298	247.14273312293
4	8045	17794.465925705782	510.07255490321
4	8056	17824.517326485456	231.94355820168
4	8069	17855.850518489543	241.58559621231
4	8072	17868.722181767912	513.5063760311
4	8084	17886.926894630418	231.42150451883
4	8093	17908.618745368381	567.59027311559
4	8099	17914.985058874274	295.73794175964
4	8105	17919.136120268367	252.74996251659
4	8111	17944.110735822149	251.90351069071
4	8116	17954.899070196734	555.46962705341
4	8138	17996.591967782971	224.74661515307
4	8141	17997.351895029372	609.81682192381
4	8154	18012.82706841785	308.74011507363
4	8157	18020.137425095882	601.51043372855
4	8166	18051.345553114966	229.47840463988
4	8169	18056.659048132073	584.03123455243
4	8178	18078.154150548229	228.89717646224
4	8181	18078.420417105305	558.8682322917
4	8184	18103.952738070589	553.76807995691
4	8186	18121.618962425834	206.23559077968
4	8195	18142.611520727919	576.85077402277
4	8203	18152.044627298798	199.63404766705
4	8206	18185.039075499393	558.2962640694
4	8208	18185.765692515905	187.9810682871
4	8217	18236.701652907447	588.84704669722
4	8223	18273.289908824616	602.46016707935
4	8229	18312.990263908696	435.76251832165
4	8235	18344.668131229776	459.20323429948
4	8238	18382.893334905677	453.66854852355
4	8244	18391.569851594426	420.72941104987
4	8249	18418.566908705023	444.37897967027
4	8254	18494.136463588657	514.32804331869

