version 2
run General-0-20190503-13:27:35-4400
attr configname General
attr datetime 20190503-13:27:35
attr experiment General
attr inifile omnetpp.ini
attr iterationvars ""
attr iterationvarsf ""
attr measurement ""
attr network AmusementNetwork
attr processid 4400
attr repetition 0
attr replication #0
attr resultdir results
attr runnumber 0
attr seedset 0
param **.Source.interArrivalTime exponential(20s)
param **.TicketBooth1.serviceTime "truncnormal(75s, 15s)"
param **.TicketBooth2.serviceTime "truncnormal(75s, 15s)"
param **.TicketBooth3.serviceTime "truncnormal(75s, 15s)"
param **.TicketBooth4.serviceTime "truncnormal(75s, 15s)"
param **.SecurityBooth1.serviceTime "truncnormal(30s, 10s)"
param **.SecurityBooth2.serviceTime "truncnormal(30s, 10s)"
param **.SecurityBooth3.serviceTime "truncnormal(30s, 10s)"
param **.SecurityBooth4.serviceTime "truncnormal(30s, 10s)"
param **.Source.numJobs default
param **.Source.jobName "\"Customer\""
param **.Source.jobType default
param **.Source.jobPriority default
param **.Source.startTime 0s
param **.Source.stopTime 18000s
param **.TicketQueue.capacity default
param **.TicketQueue.fifo true
param **.TicketQueue.sendingAlgorithm default
param **.TicketBooth1.fetchingAlgorithm default
param **.TicketBooth2.fetchingAlgorithm default
param **.TicketBooth3.fetchingAlgorithm default
param **.TicketBooth4.fetchingAlgorithm default
param **.SecurityQueue.capacity default
param **.SecurityQueue.fifo true
param **.SecurityQueue.sendingAlgorithm default
param **.SecurityBooth1.fetchingAlgorithm default
param **.SecurityBooth2.fetchingAlgorithm default
param **.SecurityBooth3.fetchingAlgorithm default
param **.SecurityBooth4.fetchingAlgorithm default
param **.WalkingDelay.serviceTime 20s
param **.WalkingDelay.capacity default
param **.WalkingDelay.fifo true
param **.Ride3.capacity 10
param **.Ride4.capacity 10
param **.Ride5.capacity 10
param **.Ride2.capacity 10
param **.Ride1.capacity 10
param **.Ride3Queue.serviceTime 0
param **.Ride2Queue.serviceTime 0
param **.Ride1Queue.serviceTime 0
param **.Ride4Queue.serviceTime 0
param **.Ride5Queue.serviceTime 0
param **.Sink.keepJobs false
param **.Router.routingAlgorithm default
param **.Router.randomGateIndex default
param **.Ride1.serviceTime 60s
param **.Ride2.serviceTime 60s
param **.Ride3.serviceTime 60s
param **.Ride4.serviceTime 60s
param **.Ride5.serviceTime 60s

vector 0 AmusementNetwork.TicketQueue queueLength:vector ETV
attr interpolationmode sample-hold
attr title "queue length, vector"
vector 1 AmusementNetwork.SecurityQueue queueLength:vector ETV
attr interpolationmode sample-hold
attr title "queue length, vector"
vector 2 AmusementNetwork.WalkingDelay queueLength:vector ETV
attr interpolationmode sample-hold
attr title "queue length, vector"
vector 3 AmusementNetwork.Ride3Queue queueLength:vector ETV
attr interpolationmode sample-hold
attr title "queue length, vector"
vector 4 AmusementNetwork.Ride2Queue queueLength:vector ETV
attr interpolationmode sample-hold
attr title "queue length, vector"
vector 5 AmusementNetwork.Ride1Queue queueLength:vector ETV
attr interpolationmode sample-hold
attr title "queue length, vector"
vector 6 AmusementNetwork.Ride4Queue queueLength:vector ETV
attr interpolationmode sample-hold
attr title "queue length, vector"
vector 7 AmusementNetwork.Ride5Queue queueLength:vector ETV
attr interpolationmode sample-hold
attr title "queue length, vector"
vector 8 AmusementNetwork.Ride1 queueLength:vector ETV
attr interpolationmode sample-hold
attr title "queue length, vector"
vector 9 AmusementNetwork.Ride2 queueLength:vector ETV
attr interpolationmode sample-hold
attr title "queue length, vector"
vector 10 AmusementNetwork.Ride3 queueLength:vector ETV
attr interpolationmode sample-hold
attr title "queue length, vector"
vector 11 AmusementNetwork.Ride4 queueLength:vector ETV
attr interpolationmode sample-hold
attr title "queue length, vector"
vector 12 AmusementNetwork.Ride5 queueLength:vector ETV
attr interpolationmode sample-hold
attr title "queue length, vector"
vector 13 AmusementNetwork.Sink lifeTime:vector ETV
attr interpolationmode none
attr title "lifetime of arrived jobs, vector"
attr unit s
0	0	0	0
0	117	243.42890855308	1
0	123	250.657850803866	0
0	128	271.856202154954	1
0	131	288.232850033939	0
0	160	304.864028458907	1
0	161	310.346607632283	0
0	168	314.635169445066	1
0	170	323.54553934609	2
0	180	332.844677778751	1
0	184	339.644485390171	0
0	189	342.535431016025	1
0	191	346.283952336383	2
0	193	351.008086458037	3
0	200	359.876167030449	4
0	219	380.193313951206	3
0	224	387.657020826269	4
0	230	394.822353919453	3
0	234	397.38950666371	2
0	239	399.203507042399	3
0	245	414.802131346895	2
0	276	420.378361344282	3
0	282	423.352606729324	4
0	292	448.714073487026	3
0	297	453.485313394774	4
0	299	453.758604963391	5
0	301	455.80150259389	6
0	307	465.601881959215	5
0	312	475.303541277016	6
0	313	479.957329219859	5
0	344	498.830848744852	4
0	353	513.113215730521	3
0	358	517.409967292861	4
0	372	538.119509277888	3
0	407	559.080734014834	2
0	417	567.488202954565	3
0	419	567.676217967847	4
0	420	569.012513887709	3
0	424	578.620041659975	2
0	436	589.693136169664	3
0	462	605.789084165692	4
0	463	609.41088694308	3
0	475	628.441767005142	4
0	483	646.565589704005	3
0	487	651.110218218442	2
0	521	663.51085547866	1
0	529	681.968695156442	0
0	539	693.944630559437	1
0	570	722.000785281134	0
0	580	736.534618480798	1
0	581	742.061619883977	0
0	593	757.190558693706	1
0	595	757.578154320666	2
0	596	758.314281082825	1
0	607	767.28350837068	0
0	612	770.280708633283	1
0	613	777.43151380898	0
0	781	927.848533020706	1
0	789	943.658082750483	0
0	896	1044.895183599058	1
0	904	1070.268095578271	0
0	948	1098.323514341583	1
0	956	1104.757056003642	0
0	961	1121.146272398771	1
0	969	1130.561558413414	0
0	1186	1350.042074079657	1
0	1188	1356.526056349387	2
0	1190	1359.358897045291	3
0	1191	1360.569849453516	2
0	1201	1363.204125862134	3
0	1202	1374.80361224751	2
0	1206	1378.500329169893	1
0	1234	1394.136693523873	0
0	1239	1399.909393920925	1
0	1250	1415.977229174267	2
0	1258	1428.846250453516	1
0	1263	1433.541530748632	2
0	1265	1439.052089489398	3
0	1294	1452.474303905043	2
0	1301	1461.670459073172	3
0	1302	1465.787015543025	2
0	1311	1475.727709798302	1
0	1318	1485.984268540342	2
0	1349	1504.636505645719	3
0	1355	1513.580447951484	2
0	1366	1533.692089777655	1
0	1377	1549.088483435133	0
0	1405	1564.280519155171	1
0	1411	1570.300434400569	0
0	1416	1584.684260914267	1
0	1425	1591.756192419527	2
0	1426	1595.817182380112	1
0	1430	1600.809620559192	0
0	1437	1606.0770987794	1
0	1444	1614.49696474038	2
0	1470	1625.54802367575	1
0	1482	1645.60285194747	2
0	1486	1653.472900169924	3
0	1488	1654.571047620946	4
0	1489	1655.359751859246	3
0	1500	1672.039353634341	2
0	1533	1685.731977522778	1
0	1537	1689.931737773717	0
0	1547	1715.668243201088	1
0	1549	1718.487600889389	2
0	1562	1736.414184989799	3
0	1563	1737.288290371052	2
0	1596	1749.357679070661	3
0	1597	1754.390115226137	2
0	1601	1754.751292410176	1
0	1606	1758.916038820884	2
0	1609	1762.82702823931	1
0	1614	1763.544458259987	2
0	1621	1769.550959865701	3
0	1623	1770.999342067993	4
0	1636	1788.714554988591	5
0	1638	1797.982355539391	6
0	1639	1799.615246780394	5
0	1669	1800.847415967027	6
0	1676	1808.176441803679	7
0	1683	1825.409791639584	8
0	1684	1835.724746533376	7
0	1690	1841.167060363539	6
0	1699	1852.776851507594	5
0	1736	1876.427827897147	4
0	1748	1889.505968231819	5
0	1749	1892.390283179897	4
0	1756	1901.778052426641	5
0	1763	1903.740442879218	6
0	1764	1905.064434336139	5
0	1802	1927.165716778158	6
0	1804	1927.362005506121	7
0	1807	1939.280621287924	6
0	1816	1957.930889228013	5
0	1821	1959.193127961985	6
0	1824	1963.038830719653	5
0	1835	1974.777913163553	4
0	1840	1976.341830014261	5
0	1873	1996.167420129447	6
0	1888	2026.737824103964	5
0	1893	2033.982003218075	6
0	1927	2045.717379351675	7
0	1928	2046.499648677966	6
0	1932	2050.903931018643	5
0	1943	2073.51629322387	4
0	1957	2098.701144596278	5
0	1991	2114.159479625808	4
0	2000	2130.563512028994	3
0	2005	2135.291987713452	4
0	2006	2139.857883948963	3
0	2019	2159.934243412163	2
0	2056	2179.870632808483	1
0	2073	2215.243257247852	2
0	2074	2215.557549554283	1
0	2078	2216.720011826384	0
0	2284	2414.633180915112	1
0	2290	2425.881493185764	0
0	2349	2499.920158086454	1
0	2355	2502.946123693491	0
0	2360	2505.907218145282	1
0	2407	2561.377231448166	0
0	2524	2695.20046686712	1
0	2558	2714.73369831791	0
0	2563	2715.360737676807	1
0	2570	2726.446107145071	2
0	2571	2730.783652604246	1
0	2575	2743.276926641056	0
0	2613	2773.771912422019	1
0	2615	2773.826049913593	2
0	2616	2775.010611787757	1
0	2623	2778.977747240417	2
0	2629	2792.570621644233	1
0	2634	2796.748321486928	2
0	2636	2804.876578821877	3
0	2638	2805.467215045156	4
0	2644	2814.541853904709	3
0	2678	2826.68367500797	2
0	2682	2829.223195896284	1
0	2692	2836.760346059106	2
0	2694	2839.625320134813	3
0	2700	2849.989877096888	4
0	2708	2856.664531086598	3
0	2717	2877.937974040176	2
0	2746	2882.996878517619	1
0	2755	2909.724546174342	0
0	2775	2932.317255991333	1
0	2776	2934.81911913664	0
0	2816	2950.540172152738	1
0	2824	2974.687505009012	0
0	2845	2996.849845045043	1
0	2872	3004.110788132921	2
0	2873	3011.043413426223	1
0	2885	3016.832857220245	2
0	2886	3018.748482525557	1
0	2898	3038.637768949467	2
0	2933	3062.834662833226	1
0	2937	3066.482264290761	0
0	3013	3130.644709072228	1
0	3021	3153.480930058013	0
0	3031	3159.631146461742	1
0	3033	3170.98890032413	2
0	3035	3173.484762169342	3
0	3045	3176.403564023466	2
0	3076	3181.349107909157	3
0	3077	3185.873723922693	2
0	3086	3201.191495208989	1
0	3093	3211.716490877099	2
0	3095	3211.895918623779	3
0	3097	3213.94228821523	4
0	3104	3215.833622945249	5
0	3107	3221.056943119859	4
0	3111	3234.622965217835	3
0	3116	3235.14233893918	4
0	3123	3236.348699414739	5
0	3153	3249.16700787866	6
0	3155	3251.273296262701	7
0	3163	3264.386120598577	6
0	3167	3270.822339277183	5
0	3178	3281.426677878084	4
0	3185	3290.188987941146	5
0	3217	3300.394415896317	6
0	3227	3318.710085334505	5
0	3231	3331.931732588237	4
0	3244	3347.232908293649	3
0	3249	3349.460532726381	4
0	3250	3352.102457558066	3
0	3285	3365.951967189955	4
0	3293	3390.394042438549	3
0	3306	3407.292481363973	2
0	3311	3410.337877625423	3
0	3313	3414.566301124983	4
0	3319	3416.971340397967	3
0	3323	3416.984041807477	2
0	3352	3423.343384665824	3
0	3354	3423.517942591961	4
0	3356	3425.62546540457	5
0	3358	3426.130687840585	6
0	3360	3432.289463752198	7
0	3362	3435.405847474399	8
0	3369	3436.774624982064	9
0	3371	3438.131742543022	10
0	3373	3443.169238236901	11
0	3385	3463.027226804821	10
0	3389	3464.674332646431	9
0	3393	3475.238551989127	8
0	3427	3481.966473428718	9
0	3429	3482.554072374368	10
0	3430	3487.538316072948	9
0	3435	3491.176108918691	10
0	3455	3533.31195143629	11
0	3482	3547.928022809665	10
0	3486	3552.904811624646	9
0	3490	3554.325773284051	8
0	3508	3588.846592610998	7
0	3543	3606.716223071197	6
0	3555	3620.711946464845	7
0	3556	3622.559379309212	6
0	3565	3635.787085766661	5
0	3570	3639.472108777006	6
0	3572	3650.215783518733	7
0	3606	3664.786119589692	6
0	3611	3664.926918617602	7
0	3619	3679.084812250792	6
0	3623	3679.310485221962	5
0	3627	3683.616085348716	4
0	3641	3704.075286462394	5
0	3664	3720.232410274088	4
0	3678	3735.468053554559	5
0	3679	3746.044204572198	4
0	3686	3747.537629403145	5
0	3687	3751.000277066914	4
0	3696	3759.088247489178	3
0	3701	3762.872137045698	4
0	3703	3766.273278821558	5
0	3739	3795.038425706864	4
0	3749	3796.746684428363	5
0	3750	3799.254021618198	4
0	3754	3811.199150025477	3
0	3764	3815.629509469691	4
0	3766	3816.445799476707	5
0	3768	3816.595726365678	6
0	3771	3830.079493014334	5
0	3781	3837.012374746731	6
0	3811	3855.142400291124	7
0	3817	3870.383538090448	6
0	3826	3876.270476495813	5
0	3831	3876.373466617051	6
0	3833	3878.758764016553	7
0	3835	3880.456238492777	8
0	3836	3881.055105379191	7
0	3841	3885.232409681775	8
0	3845	3894.39790094288	9
0	3882	3909.083569391334	8
0	3892	3921.746015322937	9
0	3898	3936.326273079752	8
0	3905	3946.807577202914	9
0	3938	3961.45672458598	8
0	3942	3961.922106161468	7
0	3947	3972.791563851566	8
0	3954	3979.72290403415	9
0	3958	3990.552353907422	10
0	3964	3996.732063168428	9
0	3971	4002.753769732944	10
0	3977	4016.06698881159	9
0	3982	4018.543301629705	10
0	4006	4029.086677423642	11
0	4022	4055.819898198667	12
0	4024	4059.227445372391	13
0	4025	4063.520021204259	12
0	4029	4066.092782441649	11
0	4064	4082.92116838549	12
0	4066	4088.392465630472	13
0	4069	4093.613332273949	12
0	4085	4115.760059495905	11
0	4095	4139.750920025757	12
0	4121	4145.689861201381	13
0	4125	4154.587830581091	14
0	4126	4154.910379819094	13
0	4135	4158.44163027953	12
0	4140	4158.691886947663	13
0	4141	4164.274982658649	12
0	4146	4170.042538624299	13
0	4184	4206.839512584538	12
0	4188	4207.38274759597	11
0	4199	4231.901460109542	10
0	4208	4237.165957668901	9
0	4213	4246.533931753079	10
0	4222	4258.431456870913	11
0	4254	4262.211027205274	12
0	4256	4269.675421772376	13
0	4262	4275.682960092129	12
0	4267	4280.456211943125	13
0	4268	4283.133105906146	12
0	4275	4286.603557398167	13
0	4315	4326.31127250314	12
0	4319	4327.702449319219	11
0	4329	4336.758004103368	12
0	4330	4337.266957014114	11
0	4336	4353.46450865719	10
0	4348	4362.903831803383	11
0	4383	4395.167479453927	10
0	4392	4400.952176986942	9
0	4402	4420.893804876909	10
0	4406	4425.782942728853	11
0	4408	4431.219413109129	12
0	4416	4438.605307142565	11
0	4444	4442.162720814977	10
0	4453	4455.811859997104	9
0	4467	4477.911177550439	10
0	4469	4479.337917678743	11
0	4471	4484.896178614788	12
0	4472	4486.844621072969	11
0	4507	4509.359973425807	12
0	4508	4511.230225908825	11
0	4522	4537.45719277796	10
0	4529	4541.006786431589	11
0	4530	4542.246411558409	10
0	4534	4542.614092944645	9
0	4539	4544.970812842612	10
0	4571	4563.501551053351	11
0	4577	4565.865874954064	12
0	4583	4578.716541331764	11
0	4588	4579.395272551445	12
0	4596	4595.646117607001	11
0	4602	4608.113779596481	10
0	4611	4619.393152432701	9
0	4651	4640.796063043808	8
0	4656	4646.494560138682	9
0	4662	4668.441886763281	8
0	4672	4679.21675495061	9
0	4702	4691.93564681388	8
0	4707	4692.776465384848	9
0	4715	4695.825343539367	8
0	4720	4700.573110315208	9
0	4722	4705.811102126857	10
0	4724	4707.86674276726	11
0	4726	4710.38088054256	12
0	4737	4724.849800543868	13
0	4738	4731.263153490648	12
0	4747	4737.74871298286	11
0	4777	4741.669152818607	10
0	4781	4744.757227131153	9
0	4804	4780.59557319757	10
0	4806	4782.869533765971	11
0	4833	4808.556807296189	10
0	4843	4823.407272907479	11
0	4846	4827.352721891633	10
0	4850	4830.237818947234	9
0	4860	4836.878488716744	10
0	4861	4846.417165809074	9
0	4902	4885.659082174904	8
0	4907	4890.37367659394	9
0	4915	4901.945059447909	8
0	4919	4907.504281749738	7
0	4923	4908.076358677921	6
0	4969	4952.601377117971	5
0	4979	4957.378978708065	6
0	4980	4965.714057307223	5
0	4984	4967.301492576774	4
0	4989	4970.278495461826	5
0	4997	4979.258024759313	4
0	5028	4980.958962276323	5
0	5039	4997.290188897771	6
0	5041	5002.498690287546	7
0	5045	5013.346284161997	8
0	5051	5021.827716235892	7
0	5061	5036.476299485115	8
0	5063	5037.730370930166	9
0	5065	5038.77889130721	10
0	5094	5044.799046516406	9
0	5098	5053.902713716583	8
0	5107	5064.334344283766	7
0	5121	5085.820009008639	8
0	5153	5102.374045443795	9
0	5154	5115.120590336766	8
0	5163	5132.668495005108	7
0	5167	5133.560807383695	6
0	5178	5150.535608524786	5
0	5215	5170.804780367104	6
0	5226	5186.883631722002	7
0	5228	5193.901745156119	8
0	5235	5200.094409671528	9
0	5236	5204.193439182848	8
0	5241	5206.27676347563	9
0	5242	5208.221767312047	8
0	5275	5224.005215402836	7
0	5279	5229.562982764882	6
0	5289	5235.995557145663	7
0	5330	5283.420540832707	6
0	5334	5284.528829822103	5
0	5338	5292.575486965367	4
0	5347	5302.772804084547	3
0	5354	5312.47006861905	4
0	5356	5312.511403935916	5
0	5374	5336.322459871211	6
0	5399	5344.345166862392	7
0	5400	5352.686531538488	6
0	5409	5372.452618790133	5
0	5420	5380.093804486161	4
0	5424	5381.785377341716	3
0	5457	5403.407009760835	4
0	5469	5426.20543794919	3
0	5474	5427.9184697996	4
0	5476	5434.177346873664	5
0	5483	5442.271584179482	6
0	5491	5459.838134796486	5
0	5519	5467.461383739252	4
0	5523	5471.574854907388	3
0	5543	5512.669231433157	2
0	5577	5530.32987199791	3
0	5586	5536.454063343236	4
0	5587	5541.863588855802	3
0	5591	5548.565761200841	2
0	5595	5549.318685191416	1
0	5638	5588.358822577837	0
0	5643	5594.326862774323	1
0	5649	5595.538741104082	0
0	5659	5616.694421709609	1
0	5664	5633.012322085116	0
0	5669	5633.134524523428	1
0	5670	5634.393649297385	0
0	5765	5703.495466697347	1
0	5768	5711.238059901612	0
0	5778	5717.456774999297	1
0	5779	5722.284786400222	0
0	5946	5901.744913192781	1
0	5947	5908.666283033231	0
0	5963	5920.483823494642	1
0	6005	5968.363239527449	2
0	6006	5969.732553915386	1
0	6010	5970.149879061837	0
0	6026	5988.249714904952	1
0	6035	5999.49198014304	2
0	6060	6000.6039621885	1
0	6074	6028.896644041972	2
0	6075	6028.926427766873	1
0	6082	6034.068709436788	2
0	6084	6034.500511051671	3
0	6120	6066.955266556592	2
0	6124	6073.228605250131	1
0	6134	6079.972201543832	2
0	6135	6081.245349175184	1
0	6148	6106.356072850316	0
0	6158	6117.278696634799	1
0	6160	6119.391095094803	2
0	6190	6124.898155642621	3
0	6192	6130.453615524891	4
0	6195	6132.565991784874	3
0	6199	6135.010901484782	2
0	6208	6145.628895907368	1
0	6256	6186.022331357258	2
0	6257	6194.593129218394	1
0	6266	6198.088904240495	0
0	6520	6470.403382227512	1
0	6526	6478.945218786233	0
0	6578	6525.796631363774	1
0	6610	6544.043514656503	0
0	6615	6549.742787363891	1
0	6622	6556.492941966875	2
0	6623	6559.525832875175	1
0	6627	6560.197545029386	0
0	6698	6619.969381839645	1
0	6700	6624.437000507443	2
0	6701	6627.238070731091	1
0	6752	6690.873446462332	2
0	6753	6694.84399755729	1
0	6758	6695.167935677019	2
0	6765	6699.915360461745	3
0	6767	6700.834768842945	4
0	6768	6703.347169493434	3
0	6773	6703.716186735572	4
0	6774	6704.504743851694	3
0	6778	6705.094166370462	2
0	6832	6766.262372482482	1
0	6836	6766.555958123521	0
0	6841	6769.036195449289	1
0	6843	6775.148948943811	2
0	6875	6780.247677913946	1
0	6887	6799.360680892192	2
0	6893	6813.504212430469	3
0	6899	6828.656519774971	2
0	6903	6832.110124224904	1
0	6941	6859.90618175244	0
0	6946	6861.201485295408	1
0	6950	6867.358041488474	2
0	6953	6871.678230954199	1
0	6962	6881.986616935173	0
0	7025	6940.761983948721	1
0	7027	6941.5318966465	2
0	7028	6944.321212636404	1
0	7035	6949.288514754942	2
0	7037	6952.603523470161	3
0	7038	6955.047534133016	2
0	7048	6955.630205221734	3
0	7075	6972.750067031621	4
0	7083	6988.868901617715	3
0	7088	6994.752464906546	4
0	7097	7000.446657072479	5
0	7098	7004.535595048719	4
0	7102	7007.116012433602	3
0	7137	7022.928820545405	4
0	7138	7026.085080492669	3
0	7143	7028.097526146259	4
0	7145	7032.236464811382	5
0	7154	7037.252516790619	6
0	7164	7069.402742461264	5
0	7173	7079.11149464009	4
0	7202	7081.887666755617	3
0	7206	7094.113550078298	2
0	7220	7108.311389742726	3
0	7230	7134.064975828283	2
0	7240	7139.511920803197	3
0	7266	7140.721570603929	2
0	7277	7160.629625781942	1
0	7288	7181.681100864204	0
0	7293	7182.084230725652	1
0	7323	7211.52434428997	0
0	7359	7257.018216517381	1
0	7385	7268.378428614354	0
0	7557	7454.700016599267	1
0	7563	7459.41209669291	0
0	7624	7517.713872530627	1
0	7625	7518.657716432306	0
0	7630	7522.098199413769	1
0	7631	7524.849080644786	0
0	7636	7528.381477400196	1
0	7672	7566.885096017157	0
0	7692	7580.031778781532	1
0	7700	7598.694223395891	0
0	7705	7605.572519884687	1
0	7706	7608.639385577961	0
0	7711	7615.232396129744	1
0	7744	7624.979776454846	2
0	7746	7628.544701773816	3
0	7750	7630.925425325276	4
0	7758	7649.782991906578	3
0	7763	7654.794480983703	4
0	7769	7670.722923775262	3
0	7773	7671.373766717861	2
0	7782	7677.531102332743	1
0	7811	7681.140463047999	2
0	7822	7701.482743843301	3
0	7824	7703.629332057259	4
0	7825	7710.467716076453	3
0	7874	7765.022603533362	4
0	7875	7766.778487911577	3
0	7879	7768.931689349892	2
0	7883	7774.928187612904	1
0	7900	7797.711110862993	2
0	7929	7803.207541981079	3
0	7934	7804.823434664929	2
0	7944	7821.34348285804	3
0	7945	7825.078247720634	2
0	7952	7832.132578942123	3
0	7954	7834.837798861027	4
0	7956	7836.786774769287	5
0	7962	7849.747556190512	4
0	7999	7862.513609160971	3
0	8003	7868.318750869375	2
0	8008	7876.112828242692	3
0	8014	7878.890351268076	2
0	8023	7887.399390357328	3
0	8025	7888.243064439022	4
0	8027	7888.909565772092	5
0	8029	7889.004742038202	6
0	8031	7894.603174820546	7
0	8040	7903.429324143831	8
0	8042	7908.984804423839	9
0	8043	7909.861655985656	8
0	8050	7913.167946056009	9
0	8052	7913.964547001919	10
0	8085	7928.512407223483	11
0	8087	7932.075373712525	12
0	8088	7933.808629560625	11
0	8092	7937.106945205826	10
0	8111	7961.061791085288	11
0	8112	7961.328317317998	10
0	8119	7977.067500438242	11
0	8149	7984.494441597312	12
0	8150	7991.101880413761	11
0	8161	8009.155590356299	10
0	8172	8027.263922447227	9
0	8176	8030.469840424113	8
0	8212	8042.660216911324	9
0	8222	8058.40428582367	8
0	8229	8069.825887296018	9
0	8231	8073.474116522223	10
0	8233	8074.409180100879	11
0	8240	8078.20085774786	12
0	8241	8083.089994765295	11
0	8248	8091.339221120663	12
0	8278	8103.412599876264	13
0	8279	8106.659822904114	12
0	8286	8117.020320337583	13
0	8292	8119.133696397157	12
0	8297	8120.338744236249	13
0	8299	8125.774198129059	14
0	8301	8126.571255944966	15
0	8309	8142.25629131425	14
0	8314	8155.274773483619	15
0	8316	8155.456799256414	16
0	8347	8165.133675880244	15
0	8356	8171.497102558731	16
0	8363	8178.996494978558	17
0	8364	8181.728744200789	16
0	8368	8183.623750777296	15
0	8412	8222.135775889401	16
0	8418	8239.987745181527	15
0	8423	8246.257499324227	16
0	8424	8254.071877142317	15
0	8433	8264.176574411896	14
0	8438	8265.708499355701	15
0	8440	8269.4633529984	16
0	8443	8273.335849981413	15
0	8455	8279.696271515462	16
0	8491	8307.51008523021	15
0	8495	8314.187486661839	14
0	8505	8318.383539594695	15
0	8507	8320.444628823881	16
0	8509	8323.559937484633	17
0	8510	8334.183631351555	16
0	8514	8334.482853939727	15
0	8556	8353.826390277507	16
0	8558	8354.085608083019	17
0	8566	8376.350082255525	16
0	8570	8376.499523471496	15
0	8582	8390.310225439437	16
0	8583	8392.610566748304	15
0	8616	8407.708799619745	16
0	8617	8413.279123712373	15
0	8629	8430.716773124962	16
0	8635	8439.454916367532	15
0	8639	8450.996473370924	14
0	8678	8467.966888809378	13
0	8692	8494.251946614108	14
0	8700	8511.576054737633	13
0	8730	8527.953528276746	12
0	8739	8543.128181800073	11
0	8743	8545.386660848151	10
0	8757	8562.505282796066	11
0	8761	8576.588353993503	12
0	8798	8600.003530420276	11
0	8803	8600.516940299878	12
0	8804	8601.227551969479	11
0	8808	8611.007580138704	10
0	8812	8615.548377399522	9
0	8826	8619.333038993994	10
0	8859	8649.008094522952	9
0	8869	8672.554376324244	10
0	8871	8675.046191947905	11
0	8873	8676.736745804524	12
0	8879	8678.173832204499	11
0	8886	8685.545827646469	12
0	8887	8686.496474167423	11
0	8891	8687.866687819537	10
0	8896	8690.673193808411	11
0	8925	8710.066341825378	10
0	8939	8731.492968391761	11
0	8941	8734.645730537331	12
0	8947	8745.668276962422	11
0	8951	8748.30809566085	10
0	8955	8755.332865481365	9
0	8987	8771.202924701061	8
0	9003	8788.427373423845	9
0	9005	8790.811854344231	10
0	9014	8809.499962751468	11
0	9044	8826.058879572743	10
0	9048	8832.799265983839	9
0	9052	8836.051027483344	8
0	9061	8855.361762602507	7
0	9077	8872.659594861753	8
0	9084	8879.965918478171	9
0	9118	8899.162163384884	10
0	9119	8902.404092610769	9
0	9124	8905.913237530647	10
0	9125	8909.852189601475	9
0	9129	8910.469391667268	8
0	9134	8911.849390297221	9
0	9136	8914.629175536498	10
0	9145	8924.20440257691	11
0	9179	8946.385237698746	10
0	9186	8951.893269756162	11
0	9194	8971.73395574324	10
0	9198	8973.628896719558	9
0	9207	8987.63289943623	8
0	9252	9019.761585620326	7
0	9259	9033.624052948268	8
0	9260	9035.934409069029	7
0	9265	9036.195413935396	8
0	9267	9036.381970238044	9
0	9275	9054.58780364662	8
0	9312	9066.983023039179	7
0	9317	9074.678688015082	8
0	9326	9079.828672396843	9
0	9328	9082.50299559439	10
0	9332	9091.563080603713	11
0	9333	9092.918826598516	10
0	9342	9117.463409595488	9
0	9384	9140.117413968448	8
0	9396	9158.164678491082	9
0	9397	9162.619961796964	8
0	9402	9168.118916548749	9
0	9405	9173.537915203366	8
0	9409	9174.424647884273	7
0	9444	9184.257155815393	8
0	9448	9195.095345115135	9
0	9464	9221.425508175943	10
0	9465	9221.757858541989	9
0	9470	9230.844423584533	10
0	9502	9240.182915473944	9
0	9509	9246.22148713719	10
0	9510	9247.194227406324	9
0	9514	9257.249874439044	8
0	9524	9271.766564103213	9
0	9535	9284.695041692381	10
0	9536	9285.31156848088	9
0	9550	9299.506359075414	10
0	9579	9306.723025227675	11
0	9581	9312.965506089351	12
0	9582	9313.542130789371	11
0	9592	9322.927350597061	12
0	9593	9323.70430318144	11
0	9597	9330.069116019517	10
0	9607	9338.107069413313	11
0	9611	9341.374281995337	12
0	9613	9345.359419966158	13
0	9617	9348.900174187423	14
0	9619	9357.165518331359	15
0	9626	9359.601662988984	16
0	9650	9360.264701813686	15
0	9663	9387.634240458732	14
0	9675	9397.912252178705	15
0	9676	9410.313352358767	14
0	9680	9413.650125501241	13
0	9690	9418.548754032806	14
0	9717	9420.529434254912	15
0	9727	9444.426072111468	14
0	9732	9446.748484193287	15
0	9733	9452.885331641694	14
0	9743	9466.585782309723	15
0	9745	9472.075247261424	16
0	9747	9473.811797392193	17
0	9755	9477.89605474697	16
0	9793	9499.394553278678	17
0	9794	9499.416112832826	16
0	9799	9514.59465983458	17
0	9806	9518.069744163287	18
0	9807	9520.18396145916	17
0	9814	9522.31659990475	18
0	9817	9530.283317037044	17
0	9853	9548.128032778414	16
0	9865	9559.072279597641	17
0	9867	9559.623769672461	18
0	9869	9563.399630706792	19
0	9875	9571.039594226	20
0	9877	9573.973255535809	21
0	9878	9576.672111896461	20
0	9887	9579.560453049475	19
0	9892	9592.079530801731	20
0	9894	9594.963105894837	21
0	9895	9597.533496579428	20
0	9930	9603.983861526688	19
0	9948	9635.572869278567	20
0	9949	9635.684767983808	19
0	9958	9642.654202575521	18
0	9962	9643.305196953522	17
0	9967	9653.333844175606	18
0	9973	9658.834427256442	17
0	10005	9666.159582582163	18
0	10020	9688.971422357037	19
0	10026	9700.993316615625	18
0	10030	9709.922136190965	17
0	10034	9712.631427095871	16
0	10039	9715.908760438051	17
0	10069	9722.363551160509	18
0	10071	9727.610958974566	19
0	10073	9729.300302634988	20
0	10075	9737.188549017217	21
0	10087	9757.504705561765	20
0	10097	9761.512854168994	21
0	10099	9768.069882478428	22
0	10100	9770.870529615363	21
0	10138	9793.86832844848	20
0	10142	9794.996429165584	19
0	10152	9815.848672784882	20
0	10159	9820.74816605326	21
0	10160	9822.181929765329	20
0	10165	9823.1898093288	21
0	10199	9841.348532353328	20
0	10208	9855.151058529882	21
0	10214	9865.352694767211	20
0	10226	9878.190029298224	21
0	10227	9884.390127433962	20
0	10231	9895.808545618401	19
0	10267	9911.762207755614	18
0	10274	9915.833256135384	19
0	10282	9921.141145227901	18
0	10287	9921.540991985068	19
0	10298	9947.649861380239	20
0	10300	9951.608845540594	21
0	10301	9956.394299360402	20
0	10339	9982.730198252755	21
0	10341	9984.407989222082	22
0	10342	9985.266620468421	21
0	10353	10001.60598841087	20
0	10358	10003.355260434697	21
0	10361	10006.617089665315	20
0	10392	10029.075055347199	21
0	10398	10040.511092745012	20
0	10405	10045.948511286066	21
0	10409	10048.430449308565	22
0	10418	10063.912258942945	23
0	10420	10066.346306827984	24
0	10421	10073.142431819139	23
0	10425	10074.906484698094	22
0	10429	10076.294930564339	21
0	10464	10097.515339086054	22
0	10471	10099.931776498417	23
0	10474	10117.66120077837	22
0	10484	10128.220330623983	23
0	10487	10129.728079574249	22
0	10491	10133.344063849327	21
0	10530	10144.594159395901	22
0	10536	10170.663322894716	21
0	10547	10182.101000691603	20
0	10551	10189.918619829285	19
0	10586	10205.415370614726	20
0	10589	10212.224632469066	19
0	10604	10228.651572012744	18
0	10613	10247.465028467574	17
0	10620	10255.070045727194	18
0	10649	10263.626329829841	17
0	10654	10272.643340136351	18
0	10669	10302.451943153767	17
0	10678	10317.949749175663	16
0	10715	10338.30958465859	17
0	10718	10356.082374182116	16
0	10730	10361.520829803743	17
0	10731	10362.10906301649	16
0	10735	10363.818045766695	15
0	10771	10381.743275292958	16
0	10775	10386.12859662489	17
0	10786	10401.781566333411	18
0	10787	10407.601680988439	17
0	10797	10426.820596959726	18
0	10829	10452.579275851207	17
0	10834	10456.516801606385	18
0	10840	10459.373516250112	17
0	10844	10463.140891816941	16
0	10850	10471.306767768511	15
0	10868	10499.912933120585	14
0	10898	10501.567904464852	15
0	10905	10521.894800038935	16
0	10909	10529.453473819951	17
0	10911	10530.530078427918	18
0	10912	10532.374341527798	17
0	10923	10539.36728488507	16
0	10928	10540.963177390243	17
0	10930	10546.917510654394	18
0	10933	10555.155436009785	17
0	10969	10560.323048426516	18
0	10971	10564.680921389261	19
0	10974	10568.56005884722	18
0	10988	10597.448200788559	19
0	10995	10600.114176550006	20
0	10996	10601.673144447184	19
0	11001	10617.476008930352	20
0	11036	10638.095603387541	19
0	11040	10639.39428319797	18
0	11044	10643.79198794209	17
0	11049	10646.329799305592	18
0	11060	10671.9433321667	19
0	11062	10674.33676440564	20
0	11097	10680.521253838887	19
0	11101	10692.759999874317	18
0	11106	10695.371953930789	19
0	11112	10702.268316444306	18
0	11117	10703.596058481357	19
0	11126	10720.54522987327	20
0	11129	10736.388815191093	19
0	11167	10746.941518450705	20
0	11168	10749.057809772353	19
0	11172	10750.085258484941	18
0	11184	10759.072155341221	19
0	11194	10778.135825308699	18
0	11234	10807.670243836304	17
0	11239	10812.371232210431	18
0	11240	10816.885424690366	17
0	11255	10841.553284566752	18
0	11258	10849.519696210026	17
0	11262	10854.27742134702	16
0	11294	10867.804077477802	15
0	11306	10879.22876520227	16
0	11310	10886.185865488081	17
0	11313	10892.869064312624	16
0	11318	10893.279114803801	17
0	11325	10907.365623084822	18
0	11326	10910.602528409801	17
0	11360	10921.909579218726	18
0	11364	10930.891689333737	19
0	11371	10938.280134520336	20
0	11372	10938.425842120214	19
0	11376	10943.682215801354	18
0	11391	10977.428679125906	17
0	11422	10987.636997819746	16
0	11427	10997.146187039311	17
0	11435	11011.701878288853	16
0	11444	11023.061403353343	15
0	11482	11040.697547437662	16
0	11490	11057.744858826087	15
0	11495	11058.407372595014	16
0	11497	11059.022504210556	17
0	11501	11077.142281054722	18
0	11502	11077.53799895629	17
0	11512	11087.591690977172	18
0	11514	11091.877366881238	19
0	11550	11113.689592357053	18
0	11554	11114.889384508051	17
0	11559	11115.904569133339	18
0	11570	11140.996676490534	17
0	11575	11145.184678831239	18
0	11611	11163.782051527657	17
0	11615	11173.492128282902	16
0	11630	11191.105028330225	15
0	11640	11200.801937345499	16
0	11673	11222.650013872262	17
0	11674	11227.168719728861	16
0	11679	11232.259893661857	17
0	11688	11248.050645837728	18
0	11696	11264.614063271965	17
0	11727	11280.18962608693	16
0	11731	11286.623205975313	15
0	11736	11289.842413290251	16
0	11745	11299.337960510341	17
0	11749	11312.036185547345	18
0	11757	11320.712464788507	17
0	11762	11334.908191693633	18
0	11793	11346.672392903176	17
0	11798	11350.901411778261	18
0	11799	11354.750705563982	17
0	11811	11367.254003548225	18
0	11812	11369.636943480479	17
0	11825	11392.123379331063	16
0	11837	11398.842692987938	17
0	11866	11407.623418874141	18
0	11872	11427.608133930189	17
0	11876	11430.759477491317	16
0	11885	11438.93962562835	15
0	11890	11439.888372841726	16
0	11892	11446.075126181439	17
0	11931	11484.194767530278	18
0	11932	11490.376615949205	17
0	11936	11496.211603573688	16
0	11945	11516.125241458076	15
0	11954	11518.964155218193	14
0	11996	11546.272716227283	15
0	12004	11561.001512180496	14
0	12008	11564.560624519066	13
0	12012	11569.553279975392	12
0	12056	11601.169654927519	11
0	12061	11609.717749276087	12
0	12072	11627.115236735425	13
0	12073	11633.275664654131	12
0	12078	11634.858141389609	13
0	12103	11645.69931482099	12
0	12108	11647.371343443033	13
0	12114	11661.524690990173	12
0	12118	11663.789795251993	11
0	12123	11670.63749276428	12
0	12134	11692.066294794467	13
0	12166	11700.005009020964	12
0	12171	11700.781083500429	13
0	12174	11703.509544555308	12
0	12187	11722.28198338471	11
0	12191	11723.777786239363	10
0	12200	11747.001227180277	9
0	12246	11786.63073886461	10
0	12247	11787.259430509055	9
0	12252	11791.837183587089	10
0	12258	11798.522378949423	9
0	12262	11807.358128578604	8
0	12296	11820.578191014216	7
0	12311	11847.118489395822	6
0	12318	11849.578264739439	7
0	12324	11865.412827307973	6
0	12360	11888.475605872161	5
0	12365	11896.465252743898	6
0	12372	11903.396433501127	7
0	12373	11908.777024474979	6
0	12377	11909.059228644849	5
0	12389	11929.610508851783	6
0	12390	11935.27054944273	5
0	12432	11961.068305162646	6
0	12433	11970.13679085183	5
0	12444	11985.009715674541	4
0	12448	11987.002520572117	3
0	12484	12014.728335238784	2
0	12496	12028.183030351425	3
0	12502	12046.534762470649	2
0	12506	12049.407970261188	1
0	12545	12063.677903668161	2
0	12546	12067.949447114219	1
0	12551	12072.411021101581	2
0	12567	12101.343207878092	3
0	12569	12104.79494620865	4
0	12571	12106.883513060048	5
0	12573	12117.420134718815	6
0	12600	12120.692650837688	5
0	12604	12122.13309604516	4
0	12608	12123.785999972419	3
0	12628	12159.226585603922	2
0	12633	12160.063562267394	3
0	12635	12172.124412040528	4
0	12637	12172.341137261998	5
0	12643	12178.335367271936	4
0	12670	12190.697912535981	3
0	12679	12198.460497688103	2
0	12696	12224.270214772843	1
0	12701	12225.714491733002	2
0	12703	12235.077496831747	3
0	12737	12252.592009152314	2
0	12741	12254.0165564459	1
0	12750	12262.83076303989	0
0	12755	12271.753902356087	1
0	12766	12295.410639974434	2
0	12799	12304.267663267581	1
0	12809	12317.794603491226	2
0	12811	12322.341566776995	3
0	12813	12323.502022170042	4
0	12814	12332.415201541081	3
0	12826	12340.383604043091	4
0	12827	12345.967177548359	3
0	12831	12351.48132780279	2
0	12870	12377.345148186355	3
0	12878	12392.435079924077	2
0	12887	12406.662294543841	1
0	12892	12407.263622902213	2
0	12895	12416.194488950369	1
0	12930	12424.108925015984	2
0	12936	12437.930372132438	1
0	12944	12445.318365867503	0
0	12949	12451.306826539314	1
0	12955	12463.088205103066	0
0	12996	12485.683529089979	1
0	12997	12486.657579263871	0
0	13002	12488.982261722078	1
0	13009	12504.166605945946	2
0	13011	12508.080009135826	3
0	13013	12510.663090738621	4
0	13021	12520.276393226607	3
0	13025	12520.732669560443	2
0	13030	12523.169952169464	3
0	13062	12540.025013376195	2
0	13082	12577.873878786215	1
0	13087	12581.699863853948	2
0	13089	12588.46590806281	3
0	13090	12595.103276067538	2
0	13125	12600.706386068438	1
0	13131	12615.473611043014	0
0	13258	12769.426024677163	1
0	13292	12800.746755917909	2
0	13293	12811.265620393062	1
0	13303	12820.767883717236	2
0	13304	12823.62943557602	1
0	13308	12835.7967643513	0
0	13348	12843.847755410232	1
0	13360	12869.469938148404	0
0	13372	12882.883303466643	1
0	13374	12893.350327901596	2
0	13376	12893.451621413722	3
0	13409	12901.753327054609	2
0	13416	12907.892193783063	3
0	13417	12911.197835126131	2
0	13421	12913.617636048498	1
0	13441	12950.531861455917	0
0	13446	12951.171619138724	1
0	13475	12960.951084665694	0
0	13480	12961.146013311342	1
0	13483	12976.03303375334	0
0	13493	12979.113044208125	1
0	13494	12981.170301712467	0
0	13508	13003.291164994981	1
0	13510	13012.103196665369	2
0	13518	13018.921308168168	1
0	13549	13026.258471439924	2
0	13551	13032.549640691417	3
0	13552	13033.860611267807	2
0	13562	13039.934757178522	3
0	13563	13040.135648633622	2
0	13576	13059.363094845935	1
0	13612	13080.109760779214	2
0	13613	13080.369633685289	1
0	13617	13096.684130973211	0
0	13684	13156.020349397618	1
0	13691	13160.821193095605	2
0	13693	13167.469910809618	3
0	13695	13173.89116134581	4
0	13696	13174.557680003945	3
0	13705	13194.968285174279	2
0	13715	13197.709526260656	3
0	13742	13203.302158541414	4
0	13744	13203.448436216675	5
0	13746	13204.203102193862	6
0	13748	13206.68585870682	7
0	13750	13208.218879294067	8
0	13752	13213.45996057232	9
0	13753	13216.039316671205	8
0	13763	13230.73637153144	9
0	13767	13232.595730578803	10
0	13768	13232.778314800086	9
0	13784	13258.984667686522	8
0	13812	13266.857808224289	7
0	13818	13275.855372150873	6
0	13828	13280.662119493798	7
0	13830	13289.989898736015	8
0	13838	13308.81939084894	7
0	13880	13340.518552452112	8
0	13882	13342.764059117366	9
0	13884	13352.363439378338	10
0	13885	13357.45003045642	9
0	13896	13362.78206437814	8
0	13902	13376.162596612377	7
0	13935	13380.965510134695	6
0	13951	13400.868960443688	7
0	13952	13417.64537109809	6
0	13961	13436.379200116627	5
0	13997	13448.080552371878	4
0	14002	13451.774211375437	5
0	14009	13465.789820322082	6
0	14012	13473.796793930585	5
0	14022	13482.733537656827	6
0	14030	13499.924137804498	5
0	14062	13504.326850832295	6
0	14063	13510.363274570836	5
0	14076	13526.814092440667	4
0	14080	13532.358384289158	3
0	14125	13563.249646521015	2
0	14129	13571.535613245358	1
0	14139	13584.318725377244	2
0	14140	13593.649917006554	1
0	14150	13598.524994816837	2
0	14152	13599.303425181937	3
0	14154	13600.451576108935	4
0	14156	13602.495298848146	5
0	14159	13613.103441192911	4
0	14192	13627.30801021317	3
0	14204	13649.573023064465	4
0	14205	13652.929252719908	3
0	14211	13653.93948168542	2
0	14223	13668.299667831783	3
0	14225	13675.929754048629	4
0	14259	13693.856096807538	3
0	14263	13695.691305836423	2
0	14273	13699.282514473254	3
0	14311	13740.274371394081	2
0	14316	13741.634780026778	3
0	14317	13742.04274803506	2
0	14321	13744.206128918745	1
0	14331	13761.499203803671	2
0	14334	13764.87994545266	1
0	14350	13796.749767958584	2
0	14378	13809.422837949768	1
0	14383	13816.256082705454	2
0	14390	13817.711229537624	3
0	14391	13818.249874728512	2
0	14395	13825.445227122966	1
0	14400	13831.604546420001	2
0	14409	13840.646334761071	3
0	14418	13859.478070998773	4
0	14419	13859.773775838699	3
0	14451	13872.540639074982	4
0	14457	13878.445400463117	3
0	14462	13886.12448332029	4
0	14468	13899.554166517468	3
0	14472	13899.715829619004	2
0	14479	13904.508411401474	3
0	14517	13921.756953119303	4
0	14526	13944.184314977347	5
0	14528	13947.571291165235	6
0	14529	13955.725406553378	5
0	14538	13961.359981381207	4
0	14542	13973.347134882274	3
0	14579	13983.138914315515	4
0	14580	13983.65025837346	3
0	14585	13988.461103065209	4
0	14594	14015.116993634892	5
0	14602	14026.8651312649	4
0	14606	14033.532061151987	3
0	14638	14047.615212993928	2
0	14644	14053.096554637229	1
0	14663	14083.149606475237	2
0	14665	14083.947848664235	3
0	14697	14103.845696482636	2
0	14701	14104.871582105221	1
0	14705	14111.148208246007	0
0	14710	14114.405314906871	1
0	14717	14128.311360437396	2
0	14727	14138.031054028194	1
0	14732	14143.564005716497	2
0	14736	14151.600698985359	3
0	14768	14173.154851409587	2
0	14773	14173.454022464361	3
0	14779	14193.994024299424	2
0	14788	14199.50209468576	1
0	14792	14215.465505152969	0
0	14858	14261.987491344273	1
0	14862	14264.533789892007	2
0	14863	14269.719289237274	1
0	14897	14283.844960601769	0
0	14907	14299.425451881902	1
0	14911	14310.309130062556	2
0	14920	14322.569209500497	3
0	14922	14323.554649224496	4
0	14923	14324.938353905786	3
0	14927	14328.842185875264	2
0	14961	14342.310211456374	1
0	14972	14363.038400013299	0
0	14984	14377.818856731669	1
0	14989	14394.395018070737	0
0	15099	14490.887118184023	1
0	15100	14492.603031342481	0
0	15112	14509.110739619457	1
0	15145	14525.466046252079	2
0	15154	14538.411952320917	3
0	15156	14551.230356045826	4
0	15157	14553.671220378788	3
0	15161	14556.369451379664	2
0	15171	14561.341138323868	3
0	15172	14570.996498219321	2
0	15176	14574.867017123776	1
0	15181	14576.935656958943	2
0	15217	14593.641942536222	3
0	15224	14606.544424972465	4
0	15227	14613.582834391503	3
0	15237	14624.604398194561	4
0	15238	14630.182464308278	3
0	15247	14639.245814905715	2
0	15282	14653.769733822805	3
0	15291	14670.161716716445	4
0	15292	14670.369130422766	3
0	15297	14674.874137926728	4
0	15304	14682.517559051276	5
0	15308	14693.911473800726	6
0	15338	14711.500468599374	5
0	15347	14720.806771444624	4
0	15351	14722.474355598948	3
0	15362	14742.909737525681	2
0	15400	14767.844135688055	1
0	15407	14768.698452381141	2
0	15409	14773.921839610914	3
0	15416	14784.216530030601	4
0	15425	14798.993112273435	5
0	15426	14800.69087638541	4
0	15430	14803.069445226041	3
0	15439	14818.924106316224	2
0	15472	14837.292684669666	1
0	15482	14846.559385582425	2
0	15493	14859.507721296939	3
0	15495	14877.163193965044	4
0	15497	14877.348996399064	5
0	15503	14879.473267404696	4
0	15536	14900.731750246235	5
0	15537	14901.005860126222	4
0	15542	14908.336236143525	5
0	15543	14910.387503178613	4
0	15548	14910.744193120232	5
0	15558	14935.58926434978	4
0	15599	14966.008584316752	3
0	15603	14972.889095890426	2
0	15615	14980.816123208781	3
0	15618	14984.759841761251	2
0	15649	15001.328475121602	3
0	15653	15010.368934452735	4
0	15654	15013.154763283245	3
0	15659	15014.059715544067	4
0	15666	15023.931445454367	5
0	15667	15026.461311598375	4
0	15680	15043.201385166592	3
0	15717	15074.504488144206	4
0	15718	15077.624114296247	3
0	15729	15082.860570596639	2
0	15734	15083.05622842703	3
0	15735	15086.203653029444	2
0	15739	15093.536826084604	1
0	15749	15104.982801840822	2
0	15794	15140.458647820368	1
0	15799	15143.938487048581	2
0	15800	15152.019693210658	1
0	15809	15159.188327521826	0
0	15929	15284.932194717886	1
0	15931	15287.958116244446	2
0	15932	15291.562636516418	1
0	15936	15296.373341325409	0
0	16048	15378.240403758551	1
0	16089	15434.469431530234	0
0	16248	15614.330239096751	1
0	16255	15624.416682398442	2
0	16261	15648.772493306093	1
0	16296	15660.711652587291	0
0	16312	15677.883053885336	1
0	16313	15679.762354497006	0
0	16368	15723.291692205547	1
0	16369	15726.481774099136	0
0	16457	15829.586715254855	1
0	16459	15836.741155511816	2
0	16493	15849.416356282388	3
0	16500	15863.3870128934	4
0	16502	15867.510741029171	5
0	16504	15872.626076198582	6
0	16510	15878.867754332308	5
0	16514	15882.172797342076	4
0	16518	15884.903925598775	3
0	16527	15898.499944576222	2
0	16567	15924.79707512561	3
0	16578	15939.73255457807	4
0	16579	15950.98120368959	3
0	16613	15964.524768640287	2
0	16617	15968.947853173758	1
0	16621	15972.549328021159	0
0	16626	15974.576138356317	1
0	16628	15974.85369346046	2
0	16643	16001.416749715395	1
0	16678	16026.988172339541	2
0	16679	16032.047306271134	1
0	16685	16035.983994732961	0
0	16690	16036.474536928852	1
0	16697	16047.660682837982	2
0	16698	16052.888608755864	1
0	16712	16065.67012077096	2
0	16714	16070.125591432656	3
0	16715	16073.396492375046	2
0	16752	16084.620382366051	3
0	16754	16085.566961473681	4
0	16758	16097.336090891572	5
0	16764	16114.882626483629	4
0	16774	16118.807143901007	5
0	16775	16122.85096207917	4
0	16780	16124.293469753733	5
0	16781	16131.983132526855	4
0	16825	16161.424186583601	3
0	16836	16180.143185423907	2
0	16842	16186.656417465091	1
0	16886	16220.270845959532	0
0	16891	16221.308496565037	1
0	16897	16245.704024303135	0
0	16909	16259.57949883672	1
0	16936	16264.410257728373	0
0	16941	16264.747494820187	1
0	16942	16265.992196878904	0
0	16967	16297.998653409598	1
0	16971	16306.326776178687	2
0	17000	16320.314031487364	1
0	17012	16340.371907683235	2
0	17014	16342.59318098908	3
0	17015	16343.87037000236	2
0	17021	16344.9291163651	1
0	17030	16361.848545247058	0
0	17068	16395.744303132292	1
0	17074	16401.631357616784	0
0	17079	16402.886992086371	1
0	17081	16404.982380893256	2
0	17082	16407.226767586409	1
0	17086	16410.889479775772	0
0	17091	16413.241482381136	1
0	17098	16422.717767572588	2
0	17101	16430.824506829855	1
0	17143	16464.570098593798	2
0	17144	16468.740881070579	1
0	17156	16487.712488758672	2
0	17157	16489.941338514574	1
0	17193	16509.721520137298	0
0	17198	16510.807077578647	1
0	17206	16524.321868727388	0
0	17211	16527.880453898157	1
0	17217	16546.251638718269	0
0	17226	16553.634519909442	1
0	17253	16568.3421963456	0
0	17375	16693.220436037097	1
0	17377	16693.385094849053	2
0	17379	16693.8098833683	3
0	17386	16698.817109043399	4
0	17393	16737.34706853992	5
0	17394	16737.377314816454	4
0	17427	16743.868187023537	3
0	17431	16743.910760674935	2
0	17441	16763.788277925022	3
0	17443	16764.329991285601	4
0	17445	16772.807949425186	5
0	17447	16773.639187995426	6
0	17459	16788.335733366549	5
0	17495	16804.741986160948	4
0	17499	16807.718806155142	3
0	17504	16809.218598943716	4
0	17513	16824.571847050637	5
0	17519	16830.866040361682	6
0	17526	16838.254417700302	7
0	17527	16847.635570158647	6
0	17537	16857.987782035165	7
0	17558	16861.114479166	8
0	17559	16875.762293902061	7
0	17563	16876.556915820335	6
0	17577	16891.291065200053	7
0	17578	16896.519098566366	6
0	17587	16905.267550226999	5
0	17625	16926.720482826113	6
0	17629	16928.556269566084	7
0	17631	16933.426307808281	8
0	17638	16944.931666231193	9
0	17639	16949.150129696087	8
0	17643	16956.791380096564	7
0	17653	16957.741984101951	8
0	17654	16965.728865258114	7
0	17659	16968.436550982277	8
0	17660	16969.539392217579	7
0	17667	16971.577433593127	8
0	17674	16978.878303545005	9
0	17702	16987.360158591109	10
0	17709	16990.306010786483	9
0	17723	17027.020732618842	8
0	17730	17032.791244259783	9
0	17732	17034.202868902625	10
0	17733	17036.382929793099	9
0	17737	17037.598082779865	8
0	17774	17049.449724935291	9
0	17784	17067.405314410068	8
0	17789	17075.091622128392	9
0	17796	17080.07252262731	10
0	17797	17084.949248323288	9
0	17802	17085.813947756927	10
0	17804	17087.369689556234	11
0	17806	17090.499867767942	12
0	17814	17097.895410579504	11
0	17843	17111.703655710361	10
0	17848	17112.31162971627	11
0	17855	17123.205994337142	12
0	17858	17135.320702472084	11
0	17868	17139.612710329792	12
0	17872	17140.10016520353	13
0	17874	17148.280225725613	14
0	17904	17162.028762255553	13
0	17910	17168.286198183853	12
0	17919	17181.700484479514	11
0	17935	17205.435592939381	12
0	17936	17208.434750707705	11
0	17971	17223.220033671665	10
0	17983	17249.696157833118	11
0	17989	17260.991530735039	10
0	17995	17264.591063301672	9
0	17999	17275.818310390335	8
0	18033	17295.685049176668	7
0	18047	17310.598998925498	8
0	18054	17322.056914185863	9
0	18057	17334.17005393338	8
0	18061	17337.641728694498	7
0	18071	17338.159161836995	8
0	18100	17346.670530026468	7
0	18105	17357.008499181225	8
0	18112	17358.450774992299	9
0	18114	17358.736176311707	10
0	18118	17363.598340991337	11
0	18119	17368.7446540864	10
0	18131	17382.500421609663	11
0	18161	17403.888162389309	10
0	18167	17413.338755431908	9
0	18176	17430.394732102044	8
0	18181	17430.893703391853	9
0	18183	17431.816044497495	10
0	18184	17432.980884872106	9
0	18230	17467.695906520527	10
0	18238	17481.14272690282	9
0	18243	17485.600236681852	10
0	18244	17495.276352836813	9
0	18255	17507.682434702456	8
0	18261	17514.218558592299	7
0	18294	17526.053036384181	8
0	18296	17530.332990536971	9
0	18305	17540.279359600654	10
0	18307	17546.643891562921	11
0	18308	17547.913847149935	10
0	18319	17559.313916431928	9
0	18323	17566.617499057066	8
0	18328	17567.840844824185	9
0	18330	17571.211776419215	10
0	18331	17571.845252926806	9
0	18375	17610.311554046806	10
0	18382	17631.670315813695	11
0	18388	17639.61483710495	10
0	18415	17640.958379506424	9
0	18419	17644.33395594485	8
0	18424	17647.878018136297	9
0	18433	17662.813043009705	10
0	18434	17666.557362743666	9
0	18441	17676.368804489705	10
0	18443	17676.893073405342	11
0	18479	17709.418733335824	10
0	18490	17718.585292210837	9
0	18494	17719.213255254928	8
0	18499	17719.352070945698	9
0	18501	17722.78567665809	10
0	18503	17727.776789016174	11
0	18516	17745.281681083667	12
0	18517	17754.164518813322	11
0	18550	17773.93995395273	10
0	18561	17787.786498674692	9
0	18566	17788.125597382547	10
0	18569	17797.265944786617	9
0	18611	17828.002210967384	10
0	18612	17835.078478001127	9
0	18622	17840.100200040635	10
0	18623	17843.603278420403	9
0	18628	17855.18689815789	10
0	18635	17858.748680232081	11
0	18636	17860.345535861053	10
0	18674	17888.146816932315	9
0	18679	17895.739260962335	10
0	18688	17904.493849124366	11
0	18694	17922.604112441265	10
0	18699	17933.77774506053	11
0	18700	17934.172906443853	10
0	18704	17934.92433117086	9
0	18739	17955.902156136582	10
0	18740	17956.974076138719	9
0	18756	17968.368330519257	10
0	18758	17972.531208985049	11
0	18764	17986.470548860942	10
0	18770	17991.077219555635	9
0	18779	17999.047023761562	8
0	18818	18029.145407328324	7
0	18822	18029.41776501561	6
0	18867	18072.247310433831	5
0	18876	18091.540195113458	4
0	18880	18096.974163708452	3
0	18891	18114.795064232845	2
0	18937	18148.278839232679	1
0	18943	18155.562801615979	0
1	0	0	0
2	0	0	0
2	51	136.659821271953	1
2	52	146.379835093089	0
2	172	325.95510791822	1
2	174	326.587470929008	2
2	175	331.882408377769	1
2	194	351.882408377769	0
2	211	362.68507001971	1
2	213	367.094148031687	2
2	214	371.882408377769	1
2	225	391.882408377769	0
2	280	422.81198852657	1
2	284	433.31842142608	2
2	286	433.736836113873	3
2	287	442.161418115535	2
2	302	462.161418115535	1
2	337	482.161418115535	0
2	343	485.072969193669	1
2	348	502.161418115535	0
2	360	520.510521208832	1
2	362	522.044183711869	2
2	363	522.161418115535	1
2	369	525.420526882061	2
2	371	535.723371428087	3
2	400	542.161418115535	2
2	406	556.327004632114	3
2	411	562.161418115535	2
2	428	582.161418115535	1
2	434	585.092048250362	2
2	438	595.981294474642	3
2	456	602.161418115535	2
2	468	611.816230616079	3
2	469	622.161418115535	2
2	477	637.961904877734	3
2	478	642.161418115535	2
2	516	662.161418115535	1
2	526	666.157320261189	2
2	528	672.73515485617	3
2	533	682.161418115535	2
2	541	696.376319649883	3
2	542	702.161418115535	2
2	548	705.064588685074	3
2	574	722.161418115535	2
2	585	742.161418115535	1
2	591	743.359508454451	2
2	601	761.162479407927	3
2	602	762.161418115535	2
2	638	782.161418115535	1
2	644	782.290408668774	2
2	646	784.840370891189	3
2	647	802.161418115535	2
2	659	814.470111128197	3
2	660	822.161418115535	2
2	672	835.623451305928	3
2	698	842.161418115535	2
2	710	860.03467982292	3
2	711	862.161418115535	2
2	720	871.272079281399	3
2	724	882.161418115535	2
2	754	902.161418115535	1
2	760	902.945476702033	2
2	765	908.824770984487	3
2	772	922.161418115535	2
2	783	930.271587223695	3
2	784	942.161418115535	2
2	817	962.161418115535	1
2	823	973.801703963747	2
2	830	982.161418115535	1
2	841	1002.161418115535	0
2	847	1006.237284394744	1
2	852	1014.701128264029	2
2	854	1017.204580423122	3
2	876	1022.161418115535	2
2	890	1042.161418115535	1
2	898	1048.095784731833	2
2	899	1062.161418115535	1
2	934	1082.161418115535	0
2	946	1090.067994989498	1
2	950	1098.913555869698	2
2	951	1102.161418115535	1
2	962	1122.161418115535	0
2	968	1130.377432482171	1
2	994	1142.161418115535	0
2	1016	1170.220618539415	1
2	1026	1186.496977112934	0
2	1057	1200.297893890955	1
2	1058	1206.496977112934	0
2	1064	1207.39809598272	1
2	1066	1211.271918751912	2
2	1070	1226.496977112934	1
2	1078	1246.496977112934	0
2	1131	1294.859692836712	1
2	1135	1302.317376090264	0
2	1141	1302.899677177858	1
2	1170	1322.317376090264	0
2	1179	1326.030627579915	1
2	1180	1342.317376090264	0
2	1248	1407.652539628353	1
2	1252	1424.11714022945	2
2	1253	1426.864161955908	1
2	1289	1446.864161955908	0
2	1299	1456.935369780777	1
2	1306	1466.864161955908	0
2	1316	1476.764491631272	1
2	1319	1486.864161955908	0
2	1325	1492.162321045435	1
2	1350	1506.864161955908	0
2	1360	1518.290791269256	1
2	1361	1526.864161955908	0
2	1371	1535.70457344737	1
2	1372	1546.864161955908	0
2	1382	1558.840141110195	1
2	1406	1566.864161955908	0
2	1435	1604.929366099432	1
2	1438	1610.980766955974	0
2	1484	1648.770951340877	1
2	1494	1657.472688780777	2
2	1495	1663.600159628207	1
2	1526	1683.600159628207	0
2	1532	1683.877015611057	1
2	1541	1703.600159628207	0
2	1551	1719.357737713251	1
2	1553	1720.216970248958	2
2	1554	1723.600159628207	1
2	1560	1727.77387801845	2
2	1590	1743.600159628207	1
2	1608	1759.754605461094	2
2	1615	1763.600159628207	1
2	1625	1779.949185922234	2
2	1626	1783.600159628207	1
2	1632	1785.580595359042	2
2	1634	1787.252033472323	3
2	1670	1803.600159628207	2
2	1677	1823.600159628207	1
2	1689	1839.509538761915	2
2	1694	1843.600159628207	1
2	1704	1858.441632352291	2
2	1729	1863.600159628207	1
2	1735	1873.845494110893	2
2	1741	1876.802573378833	3
2	1742	1883.600159628207	2
2	1754	1893.770414525541	3
2	1757	1903.600159628207	2
2	1769	1905.897674008515	3
2	1796	1923.600159628207	2
2	1806	1928.88310281733	3
2	1811	1943.600159628207	2
2	1823	1962.249648401996	3
2	1828	1963.600159628207	2
2	1834	1970.152980189755	3
2	1867	1983.600159628207	2
2	1875	1997.961363560359	3
2	1876	2003.600159628207	2
2	1882	2009.663424384828	3
2	1883	2023.600159628207	2
2	1921	2043.600159628207	1
2	1937	2053.632660759779	2
2	1938	2063.600159628207	1
2	1948	2076.690799304198	2
2	1949	2083.600159628207	1
2	1955	2089.405711975709	2
2	1984	2103.600159628207	1
2	1990	2104.102309267039	2
2	1995	2123.600159628207	1
2	2010	2143.600159628207	0
2	2016	2145.169038410107	1
2	2018	2150.809424731228	2
2	2047	2163.600159628207	1
2	2053	2169.25788485867	2
2	2055	2171.82851708175	3
2	2060	2183.600159628207	2
2	2066	2201.944638721045	3
2	2067	2203.600159628207	2
2	2110	2223.600159628207	1
2	2116	2234.122993775601	2
2	2118	2243.187428065118	3
2	2119	2243.600159628207	2
2	2125	2245.562647864402	3
2	2132	2263.600159628207	2
2	2165	2283.600159628207	1
2	2174	2294.800762149155	2
2	2178	2303.600159628207	1
2	2184	2322.115140037815	2
2	2185	2323.600159628207	1
2	2191	2323.673527329978	2
2	2219	2343.600159628207	1
2	2228	2363.421452433058	2
2	2229	2363.600159628207	1
2	2243	2383.600159628207	0
2	2249	2384.504896063959	1
2	2275	2403.600159628207	0
2	2335	2481.274330660113	1
2	2350	2500.731679152884	0
2	2389	2520.474577556126	1
2	2390	2520.731679152884	0
2	2396	2522.056346865295	1
2	2397	2540.731679152884	0
2	2451	2611.270791418589	1
2	2453	2614.928919777784	2
2	2454	2619.007377063923	1
2	2460	2619.395599540702	2
2	2464	2639.007377063923	1
2	2497	2659.007377063923	0
2	2503	2659.444985279861	1
2	2513	2679.007377063923	0
2	2522	2693.537859407436	1
2	2525	2699.007377063923	0
2	2606	2768.718969785783	1
2	2607	2770.442173438768	0
2	2621	2777.299571410894	1
2	2624	2790.442173438768	0
2	2651	2818.347302485591	1
2	2686	2835.466975669584	0
2	2696	2844.105146528318	1
2	2698	2847.78866370047	2
2	2702	2855.327534658126	3
2	2703	2855.466975669584	2
2	2712	2875.466975669584	1
2	2722	2878.080673758309	2
2	2750	2895.466975669584	1
2	2760	2912.436809089189	2
2	2762	2915.122574218207	3
2	2763	2915.466975669584	2
2	2780	2935.466975669584	1
2	2812	2945.740785451307	2
2	2814	2946.911196223858	3
2	2817	2955.466975669584	2
2	2823	2965.011608195751	3
2	2828	2975.466975669584	2
2	2839	2995.466975669584	1
2	2878	3014.180171283148	2
2	2879	3015.466975669584	1
2	2891	3021.682240332331	2
2	2892	3035.466975669584	1
2	2900	3042.055096094897	2
2	2902	3053.382717245634	3
2	2903	3055.466975669584	2
2	2944	3075.466975669584	1
2	2950	3085.648545677191	2
2	2952	3089.486752188961	3
2	2962	3095.466975669584	2
2	2974	3110.834125012509	3
2	2978	3115.466975669584	2
2	2984	3116.900044331093	3
2	3014	3135.466975669584	2
2	3020	3146.19052265629	3
2	3025	3155.466975669584	2
2	3036	3175.466975669584	1
2	3042	3175.783866100833	2
2	3044	3176.188287604342	3
2	3081	3195.466975669584	2
2	3091	3205.724781683544	3
2	3098	3215.466975669584	2
2	3106	3216.405791563792	3
2	3117	3235.466975669584	2
2	3151	3245.04629204822	3
2	3156	3255.466975669584	2
2	3162	3257.165964774776	3
2	3171	3275.466975669584	2
2	3177	3280.399582140453	3
2	3183	3286.702933356738	4
2	3186	3295.466975669584	3
2	3219	3306.977277046085	4
2	3221	3310.243505787435	5
2	3222	3315.466975669584	4
2	3235	3335.466975669584	3
2	3241	3340.096385923535	4
2	3243	3346.273023588209	5
2	3254	3355.466975669584	4
2	3286	3375.466975669584	3
2	3292	3377.370144170348	4
2	3298	3392.774529646518	5
2	3299	3395.466975669584	4
2	3305	3400.996628200121	5
2	3314	3415.466975669584	4
2	3363	3435.466975669584	3
2	3375	3446.812584194081	4
2	3377	3449.387858410315	5
2	3378	3455.466975669584	4
2	3384	3456.418421209374	5
2	3397	3475.466975669584	4
2	3437	3491.825055993272	5
2	3438	3495.466975669584	4
2	3444	3495.688850603408	5
2	3446	3505.950152588646	6
2	3447	3515.466975669584	5
2	3453	3524.423882344628	6
2	3456	3535.466975669584	5
2	3494	3555.466975669584	4
2	3500	3568.885756261567	5
2	3501	3575.466975669584	4
2	3507	3586.485966220464	5
2	3513	3590.920240474135	6
2	3514	3595.466975669584	5
2	3547	3615.466975669584	4
2	3553	3616.185714966669	5
2	3560	3635.466975669584	4
2	3573	3655.466975669584	3
2	3579	3656.428912875678	4
2	3581	3657.166796623798	5
2	3613	3675.183434307554	6
2	3614	3675.466975669584	5
2	3632	3686.992522288161	6
2	3633	3695.466975669584	5
2	3639	3700.940172109116	6
2	3642	3715.466975669584	5
2	3669	3721.312561251673	6
2	3671	3728.806328831905	7
2	3672	3735.466975669584	6
2	3684	3746.191717553139	7
2	3691	3755.466975669584	6
2	3704	3775.466975669584	5
2	3710	3777.238794053712	6
2	3736	3786.405417567617	7
2	3738	3793.681508615112	8
2	3743	3795.466975669584	7
2	3758	3815.466975669584	6
2	3770	3818.318264990789	7
2	3775	3835.466975669584	6
2	3783	3838.317091536504	7
2	3807	3842.411952723482	8
2	3809	3849.047141095247	9
2	3812	3855.466975669584	8
2	3821	3875.466975669584	7
2	3843	3889.661855498556	8
2	3846	3895.466975669584	7
2	3852	3899.781234644018	8
2	3881	3908.420015795123	9
2	3886	3915.466975669584	8
2	3893	3935.466975669584	7
2	3903	3940.010769416177	8
2	3906	3955.466975669584	7
2	3912	3959.120250285664	8
2	3948	3975.466975669584	7
2	3956	3988.759078866803	8
2	3959	3995.466975669584	7
2	3969	4002.149458766797	8
2	3972	4015.466975669584	7
2	4008	4031.584739685625	8
2	4010	4032.834436386705	9
2	4011	4035.466975669584	8
2	4016	4055.466975669584	7
2	4033	4075.466975669584	6
2	4039	4076.891357300006	7
2	4068	4092.872514612514	8
2	4073	4095.466975669584	7
2	4079	4115.400298502283	8
2	4080	4115.466975669584	7
2	4089	4135.466975669584	6
2	4123	4153.709529473737	7
2	4130	4155.466975669584	6
2	4147	4175.466975669584	5
2	4153	4178.775307073203	6
2	4155	4191.56942833352	7
2	4156	4195.466975669584	6
2	4183	4201.518745877931	7
2	4192	4215.466975669584	6
2	4198	4229.716703140392	7
2	4203	4235.466975669584	6
2	4215	4254.105869458799	7
2	4216	4255.466975669584	6
2	4252	4261.905874474769	7
2	4257	4275.466975669584	6
2	4273	4284.898950860624	7
2	4276	4295.466975669584	6
2	4282	4308.358709631208	7
2	4283	4315.466975669584	6
2	4314	4320.066749100938	7
2	4323	4335.466975669584	6
2	4335	4352.889498146488	7
2	4341	4354.297090236832	8
2	4342	4355.466975669584	7
2	4350	4363.944196801486	8
2	4352	4368.422938595219	9
2	4353	4375.466975669584	8
2	4387	4395.466975669584	7
2	4396	4415.466975669584	6
2	4404	4423.011100571621	7
2	4410	4434.682706767552	8
2	4411	4435.466975669584	7
2	4448	4455.466975669584	6
2	4458	4456.939985568868	7
2	4460	4467.336003380791	8
2	4461	4475.466975669584	7
2	4477	4488.640791993106	8
2	4478	4495.466975669584	7
2	4505	4506.567713534407	8
2	4512	4515.466975669584	7
2	4517	4535.466975669584	6
2	4527	4538.290113243114	7
2	4540	4555.466975669584	6
2	4573	4564.941259177834	7
2	4575	4565.483597318455	8
2	4578	4575.466975669584	7
2	4590	4582.760950887644	8
2	4591	4595.466975669584	7
2	4601	4606.53271338592	8
2	4606	4615.466975669584	7
2	4641	4629.161288581973	8
2	4642	4635.466975669584	7
2	4648	4636.057677828762	8
2	4650	4638.564651242008	9
2	4657	4655.466975669584	8
2	4666	4675.466975669584	7
2	4701	4687.672228520399	8
2	4709	4693.326188792805	9
2	4710	4695.466975669584	8
2	4727	4715.466975669584	7
2	4733	4723.468992733267	8
2	4735	4724.552884590587	9
2	4742	4735.466975669584	8
2	4786	4755.377733920067	9
2	4787	4755.466975669584	8
2	4793	4758.307840780993	9
2	4795	4771.757320606133	10
2	4796	4775.466975669584	9
2	4802	4778.897397300185	10
2	4807	4795.466975669584	9
2	4837	4815.466975669584	8
2	4845	4823.692905991995	9
2	4854	4835.466975669584	8
2	4865	4855.466975669584	7
2	4892	4864.797400757769	8
2	4893	4875.466975669584	7
2	4899	4876.467451721754	8
2	4901	4884.693959762835	9
2	4908	4895.466975669584	8
2	4914	4900.887982212365	9
2	4927	4915.466975669584	8
2	4959	4931.717992196489	9
2	4960	4935.466975669584	8
2	4966	4939.9624161463	9
2	4968	4945.126451014798	10
2	4973	4955.466975669584	9
2	4991	4975.386537749889	10
2	4992	4975.466975669584	9
2	5030	4989.639380506555	10
2	5032	4995.351084819696	11
2	5033	4995.466975669584	10
2	5043	5010.443623576841	11
2	5046	5015.466975669584	10
2	5055	5035.466975669584	9
2	5067	5039.220852590493	10
2	5102	5055.466975669584	9
2	5112	5074.377264787142	10
2	5113	5075.466975669584	9
2	5119	5076.259694840823	10
2	5123	5094.829105113427	11
2	5124	5095.466975669584	10
2	5158	5115.466975669584	9
2	5172	5134.100073969122	10
2	5173	5135.466975669584	9
2	5182	5155.466975669584	8
2	5213	5170.231359314194	9
2	5216	5175.466975669584	8
2	5222	5176.50402383321	9
2	5224	5184.245129103835	10
2	5229	5195.466975669584	9
2	5246	5215.466975669584	8
2	5283	5235.466975669584	7
2	5291	5250.093940587299	8
2	5293	5254.569831582617	9
2	5294	5255.466975669584	8
2	5300	5258.288218109856	9
2	5302	5259.012380039057	10
2	5303	5275.466975669584	9
2	5342	5295.466975669584	8
2	5352	5307.733328200439	9
2	5357	5315.466975669584	8
2	5363	5318.474354861077	9
2	5365	5319.185265726337	10
2	5367	5333.722661308961	11
2	5368	5335.466975669584	10
2	5404	5355.466975669584	9
2	5413	5375.466975669584	8
2	5419	5377.452597447716	9
2	5428	5395.466975669584	8
2	5459	5405.35512292684	9
2	5461	5406.735873082557	10
2	5463	5406.935384123615	11
2	5464	5415.466975669584	10
2	5477	5435.466975669584	9
2	5485	5451.758287151013	10
2	5486	5455.466975669584	9
2	5527	5475.466975669584	8
2	5532	5495.466975669584	7
2	5538	5499.119209307804	8
2	5540	5503.009436241413	9
2	5542	5507.440910763502	10
2	5547	5515.466975669584	9
2	5579	5534.244382232214	10
2	5580	5535.466975669584	9
2	5599	5555.466975669584	8
2	5605	5568.875724342699	9
2	5607	5569.439418093149	10
2	5608	5575.466975669584	9
2	5637	5584.796123142641	10
2	5644	5595.466975669584	9
2	5653	5615.466975669584	8
2	5661	5625.458557236008	9
2	5663	5631.08489929301	10
2	5674	5635.466975669584	9
2	5705	5655.466975669584	8
2	5711	5660.011145186298	9
2	5713	5661.195315309378	10
2	5724	5674.12942712509	11
2	5725	5675.466975669584	10
2	5730	5695.466975669584	9
2	5767	5704.766792220793	10
2	5772	5715.466975669584	9
2	5784	5729.8331313333	10
2	5785	5735.466975669584	9
2	5797	5753.653569166221	10
2	5798	5755.466975669584	9
2	5828	5775.466975669584	8
2	5834	5776.701020133048	9
2	5844	5795.466975669584	8
2	5850	5800.901492166694	9
2	5852	5811.793769939404	10
2	5853	5815.466975669584	9
2	5882	5828.652850511252	10
2	5884	5832.394056763799	11
2	5885	5835.466975669584	10
2	5896	5855.466975669584	9
2	5905	5874.225177605746	10
2	5906	5875.466975669584	9
2	5937	5895.466975669584	8
2	5954	5915.466975669584	7
2	5965	5926.842090205954	8
2	5966	5935.466975669584	7
2	5997	5955.466975669584	6
2	6003	5967.540403923245	7
2	6017	5975.466975669584	6
2	6028	5993.15852065977	7
2	6029	5995.466975669584	6
2	6065	6015.044151344513	7
2	6066	6015.466975669584	6
2	6072	6028.791828268043	7
2	6080	6032.063806290632	8
2	6085	6035.466975669584	7
2	6090	6055.466975669584	6
2	6096	6057.332822483732	7
2	6128	6075.466975669584	6
2	6140	6095.046032683331	7
2	6141	6095.466975669584	6
2	6147	6096.313238364111	7
2	6152	6115.466975669584	6
2	6194	6131.069440455626	7
2	6203	6135.466975669584	6
2	6213	6150.550279527129	7
2	6214	6155.466975669584	6
2	6220	6166.842420380188	7
2	6222	6168.798848137653	8
2	6224	6173.562257108831	9
2	6225	6175.466975669584	8
2	6261	6195.466975669584	7
2	6273	6215.466975669584	6
2	6279	6219.210760986804	7
2	6287	6227.340608941833	8
2	6294	6235.466975669584	7
2	6324	6240.179695377975	8
2	6326	6241.910671641709	9
2	6327	6255.466975669584	8
2	6333	6265.230270524839	9
2	6334	6275.466975669584	8
2	6345	6295.466975669584	7
2	6377	6301.411383768884	8
2	6384	6315.466975669584	7
2	6390	6325.202921173886	8
2	6394	6335.466975669584	7
2	6400	6352.573333712129	8
2	6401	6355.466975669584	7
2	6438	6375.466975669584	6
2	6446	6395.466975669584	5
2	6458	6412.878290487995	6
2	6459	6415.466975669584	5
2	6465	6416.782650784711	6
2	6494	6433.744095376997	7
2	6495	6435.466975669584	6
2	6506	6455.466975669584	5
2	6515	6469.084254330372	6
2	6521	6475.466975669584	5
2	6560	6495.466975669584	4
2	6566	6496.986992050752	5
2	6568	6505.345576050527	6
2	6572	6515.466975669584	5
2	6579	6535.466975669584	4
2	6616	6555.466975669584	3
2	6632	6566.473479425124	4
2	6636	6575.466975669584	3
2	6642	6586.098558421588	4
2	6644	6590.73671063399	5
2	6645	6595.466975669584	4
2	6679	6606.370896671522	5
2	6686	6615.466975669584	4
2	6705	6635.466975669584	3
2	6711	6652.745952744365	4
2	6712	6655.466975669584	3
2	6718	6655.734079226002	4
2	6720	6659.459040855234	5
2	6746	6675.466975669584	4
2	6759	6695.466975669584	3
2	6782	6715.466975669584	2
2	6815	6720.756367587731	3
2	6817	6732.142587707342	4
2	6819	6732.168298955639	5
2	6820	6735.466975669584	4
2	6826	6747.638992146032	5
2	6827	6755.466975669584	4
2	6844	6775.466975669584	3
2	6880	6784.6325456369	4
2	6881	6795.466975669584	3
2	6889	6802.190879350236	4
2	6891	6807.289620080961	5
2	6894	6815.466975669584	4
2	6907	6835.466975669584	3
2	6935	6845.268288473478	4
2	6936	6855.466975669584	3
2	6948	6866.170893583341	4
2	6952	6870.975054833556	5
2	6957	6875.466975669584	4
2	6966	6895.466975669584	3
2	7003	6909.854316473089	4
2	7004	6915.466975669584	3
2	7010	6920.650514936392	4
2	7012	6922.396778163723	5
2	7019	6935.466975669584	4
2	7033	6945.361797396622	5
2	7042	6955.466975669584	4
2	7073	6968.560092947859	5
2	7076	6975.466975669584	4
2	7082	6988.070283459892	5
2	7089	6995.466975669584	4
2	7095	6999.45249502398	5
2	7106	7015.466975669584	4
2	7147	7033.021312638662	5
2	7148	7035.466975669584	4
2	7156	7047.626613990218	5
2	7157	7055.466975669584	4
2	7163	7060.870907989882	5
2	7168	7075.466975669584	4
2	7210	7095.466975669584	3
2	7216	7099.321651487655	4
2	7218	7100.174607055511	5
2	7222	7111.952584651825	6
2	7223	7115.466975669584	5
2	7229	7122.070332447072	6
2	7234	7135.466975669584	5
2	7271	7154.715945930335	6
2	7272	7155.466975669584	5
2	7282	7175.144851589399	6
2	7283	7175.466975669584	5
2	7295	7189.911232711149	6
2	7296	7195.466975669584	5
2	7330	7215.466975669584	4
2	7336	7215.921012403333	5
2	7338	7224.237653450519	6
2	7339	7235.466975669584	5
2	7353	7255.466975669584	4
2	7384	7261.492237388483	5
2	7395	7275.466975669584	4
2	7401	7277.812614243191	5
2	7403	7291.163615475419	6
2	7404	7295.466975669584	5
2	7413	7310.002096751764	6
2	7414	7315.466975669584	5
2	7447	7335.466975669584	4
2	7456	7342.824602414658	5
2	7460	7355.466975669584	4
2	7466	7356.312512647911	5
2	7468	7366.830906903304	6
2	7470	7367.247929777455	7
2	7471	7375.466975669584	6
2	7501	7395.466975669584	5
2	7515	7415.466975669584	4
2	7520	7435.466975669584	3
2	7558	7455.466975669584	2
2	7570	7475.466975669584	1
2	7579	7491.944248561776	2
2	7583	7495.466975669584	1
2	7615	7505.808228836018	2
2	7617	7510.780929332884	3
2	7618	7515.466975669584	2
2	7637	7535.466975669584	1
2	7643	7548.535449686432	2
2	7644	7555.466975669584	1
2	7680	7569.998431131248	2
2	7682	7570.005922577157	3
2	7683	7575.466975669584	2
2	7694	7591.562727246592	3
2	7695	7595.466975669584	2
2	7712	7615.466975669584	1
2	7748	7630.134986901879	2
2	7752	7634.974251124429	3
2	7753	7635.466975669584	2
2	7764	7655.466975669584	1
2	7777	7675.466975669584	0
2	7809	7680.071660634926	1
2	7813	7686.48766851863	2
2	7815	7693.017540722997	3
2	7816	7695.466975669584	2
2	7829	7715.466975669584	1
2	7835	7730.273414115548	2
2	7836	7735.466975669584	1
2	7866	7755.466975669584	0
2	7872	7757.617211332552	1
2	7887	7775.466975669584	0
2	7931	7803.669497124096	1
2	7933	7803.939319462575	2
2	7938	7817.676737734446	1
2	7950	7830.618446441092	2
2	7957	7837.676737734446	1
2	7967	7850.209543055821	2
2	7968	7857.676737734446	1
2	8009	7877.676737734446	0
2	8019	7880.787666101254	1
2	8021	7882.986871678656	2
2	8032	7897.676737734446	1
2	8038	7901.183339099995	2
2	8048	7912.059273979935	3
2	8053	7917.676737734446	2
2	8096	7937.676737734446	1
2	8102	7942.347633484839	2
2	8104	7956.671043098904	3
2	8105	7957.676737734446	2
2	8117	7967.247303482631	3
2	8120	7977.676737734446	2
2	8155	7991.331522000984	3
2	8156	7997.676737734446	2
2	8166	8015.793656605982	3
2	8167	8017.676737734446	2
2	8180	8037.676737734446	1
2	8214	8053.491161558146	2
2	8216	8056.62679073564	3
2	8217	8057.676737734446	2
2	8227	8064.170047427085	3
2	8234	8077.676737734446	2
2	8246	8088.887899412095	3
2	8249	8097.676737734446	2
2	8284	8108.711418595692	3
2	8287	8117.676737734446	2
2	8302	8137.676737734446	1
2	8308	8142.232842388515	2
2	8317	8157.676737734446	1
2	8352	8168.080224808577	2
2	8354	8169.755775463785	3
2	8357	8177.676737734446	2
2	8373	8191.514391298733	3
2	8374	8197.676737734446	2
2	8380	8211.887092568858	3
2	8382	8214.653182906433	4
2	8383	8217.676737734446	3
2	8413	8237.676737734446	2
2	8428	8257.676737734446	1
2	8442	8271.685846669915	2
2	8448	8274.157347103047	3
2	8449	8277.676737734446	2
2	8483	8292.263807632778	3
2	8485	8295.011200732564	4
2	8486	8297.676737734446	3
2	8499	8317.676737734446	2
2	8518	8337.676737734446	1
2	8524	8338.410312141198	2
2	8552	8346.672217027142	3
2	8554	8349.292126494001	4
2	8559	8357.676737734446	3
2	8565	8372.148529436386	4
2	8574	8377.676737734446	3
2	8580	8386.454122367849	4
2	8587	8397.676737734446	3
2	8593	8397.749576578542	4
2	8622	8414.191879089414	5
2	8623	8417.676737734446	4
2	8630	8437.676737734446	3
2	8644	8455.768314605463	4
2	8645	8457.676737734446	3
2	8682	8477.676737734446	2
2	8688	8479.396871762329	3
2	8690	8482.836587602418	4
2	8694	8497.221701924726	5
2	8695	8497.676737734446	4
2	8704	8517.676737734446	3
2	8734	8537.676737734446	2
2	8748	8551.947084727122	3
2	8749	8557.676737734446	2
2	8755	8561.252376965318	3
2	8759	8564.209414368702	4
2	8762	8577.676737734446	3
2	8792	8583.075305627627	4
2	8793	8597.676737734446	3
2	8817	8615.95574593855	4
2	8819	8617.090378983957	5
2	8820	8617.676737734446	4
2	8828	8620.916373438489	5
2	8829	8637.676737734446	4
2	8835	8637.920015053632	5
2	8863	8657.676737734446	4
2	8874	8677.676737734446	3
2	8884	8679.184054675975	4
2	8897	8697.676737734446	3
2	8922	8706.286159259314	4
2	8924	8707.553499729248	5
2	8929	8717.676737734446	4
2	8935	8721.648227151865	5
2	8937	8730.349264415436	6
2	8942	8737.676737734446	5
2	8959	8757.676737734446	4
2	8992	8774.29625543431	5
2	8993	8777.676737734446	4
2	8999	8780.651527421485	5
2	9001	8781.853701329614	6
2	9007	8795.764288306981	7
2	9008	8797.676737734446	6
2	9015	8817.676737734446	5
2	9056	8837.676737734446	4
2	9066	8857.67557752488	5
2	9067	8857.676737734446	4
2	9073	8870.051244479626	5
2	9075	8872.627827858979	6
2	9078	8877.676737734446	5
2	9110	8897.676737734446	4
2	9116	8897.786654403192	5
2	9137	8917.676737734446	4
2	9143	8917.904014350559	5
2	9146	8937.676737734446	4
2	9178	8945.707955526966	5
2	9184	8951.728116900839	6
2	9187	8957.676737734446	5
2	9193	8958.201020037007	6
2	9202	8977.676737734446	5
2	9211	8997.676737734446	4
2	9244	9000.50168211487	5
2	9246	9004.086939691226	6
2	9247	9017.676737734446	5
2	9257	9026.235390561166	6
2	9268	9037.676737734446	5
2	9274	9045.285424536453	6
2	9279	9057.676737734446	5
2	9311	9066.087204287748	6
2	9318	9077.676737734446	5
2	9324	9078.800298328478	6
2	9330	9090.010976478631	7
2	9337	9097.676737734446	6
2	9346	9117.676737734446	5
2	9378	9127.239099996113	6
2	9379	9137.676737734446	5
2	9389	9150.989916374983	6
2	9390	9157.676737734446	5
2	9404	9170.150960338216	6
2	9413	9177.676737734446	5
2	9446	9193.582440778882	6
2	9449	9197.676737734446	5
2	9455	9198.634682702401	6
2	9457	9212.788427843078	7
2	9458	9217.676737734446	6
2	9471	9237.676737734446	5
2	9507	9242.136900769527	6
2	9518	9257.676737734446	5
2	9526	9274.836234090383	6
2	9527	9277.676737734446	5
2	9533	9280.681253440769	6
2	9541	9292.174608398219	7
2	9543	9297.277641688733	8
2	9544	9297.676737734446	7
2	9586	9317.676737734446	6
2	9601	9337.676737734446	5
2	9609	9340.72321575987	6
2	9615	9348.70999462346	7
2	9620	9357.676737734446	6
2	9655	9360.876442635345	7
2	9656	9377.676737734446	6
2	9662	9377.695985736831	7
2	9668	9393.340454762976	8
2	9669	9397.676737734446	7
2	9684	9417.676737734446	6
2	9719	9423.114251283831	7
2	9721	9429.027054960683	8
2	9722	9437.676737734446	7
2	9737	9457.676737734446	6
2	9749	9474.69119421256	7
2	9750	9477.676737734446	6
2	9786	9491.095766035865	7
2	9787	9497.676737734446	6
2	9800	9517.676737734446	5
2	9812	9522.091963885233	6
2	9816	9526.574024769823	7
2	9821	9537.676737734446	6
2	9858	9552.509394127887	7
2	9859	9557.676737734446	6
2	9871	9564.895713021452	7
2	9873	9569.515887320977	8
2	9882	9577.676737734446	7
2	9899	9597.676737734446	6
2	9935	9606.409643975629	7
2	9937	9616.756908262249	8
2	9938	9617.676737734446	7
2	9944	9619.930477288023	8
2	9946	9626.847845081554	9
2	9953	9637.676737734446	8
2	9968	9657.676737734446	7
2	10007	9669.345498551266	8
2	10009	9673.086634297483	9
2	10010	9677.676737734446	8
2	10016	9678.08581562223	9
2	10018	9687.335439287577	10
2	10021	9697.676737734446	9
2	10040	9717.676737734446	8
2	10076	9737.676737734446	7
2	10082	9739.997699537196	8
2	10084	9740.88082072752	9
2	10086	9743.06582245452	10
2	10091	9757.676737734446	9
2	10104	9777.676737734446	8
2	10135	9786.013437599649	9
2	10137	9789.664008784269	10
2	10146	9797.676737734446	9
2	10153	9817.676737734446	8
2	10167	9827.581652183301	9
2	10168	9837.676737734446	8
2	10204	9841.504763039431	9
2	10206	9855.108348753362	10
2	10209	9857.676737734446	9
2	10219	9870.362480941989	10
2	10220	9877.676737734446	9
2	10235	9897.676737734446	8
2	10241	9897.715825344803	9
2	10272	9912.162709209367	10
2	10276	9916.53364476026	11
2	10277	9917.676737734446	10
2	10288	9937.676737734446	9
2	10294	9941.401480542413	10
2	10296	9942.5208678755	11
2	10305	9957.676737734446	10
2	10333	9977.676737734446	9
2	10347	9995.428255736874	10
2	10348	9997.676737734446	9
2	10360	10006.175471652972	10
2	10365	10017.676737734446	9
2	10393	10037.676737734446	8
2	10403	10043.16123291926	9
2	10407	10047.490788640708	10
2	10410	10057.676737734446	9
2	10416	10063.857708953026	10
2	10433	10077.676737734446	9
2	10462	10095.057453811973	10
2	10465	10097.676737734446	9
2	10473	10110.547603979489	10
2	10478	10117.676737734446	9
2	10486	10129.557765300672	10
2	10496	10137.122986444382	11
2	10497	10137.676737734446	10
2	10528	10141.389974400156	11
2	10531	10157.676737734446	10
2	10541	10171.607333772207	11
2	10542	10177.676737734446	10
2	10555	10197.676737734446	9
2	10588	10211.888660512067	10
2	10594	10216.437615718153	11
2	10595	10217.676737734446	10
2	10601	10223.185486717106	11
2	10603	10227.377198735542	12
2	10608	10237.676737734446	11
2	10618	10252.984666643679	12
2	10621	10257.676737734446	11
2	10655	10277.676737734446	10
2	10661	10293.719122757331	11
2	10662	10297.676737734446	10
2	10668	10299.429972513591	11
2	10673	10317.676737734446	10
2	10709	10337.676737734446	9
2	10717	10349.311526484114	10
2	10722	10357.676737734446	9
2	10728	10358.909929005018	10
2	10739	10377.676737734446	9
2	10773	10385.719932692606	10
2	10777	10386.562718864214	11
2	10779	10396.279956748978	12
2	10780	10397.676737734446	11
2	10791	10417.676737734446	10
2	10798	10437.676737734446	9
2	10828	10449.613991377172	10
2	10835	10457.676737734446	9
2	10849	10471.068553353728	10
2	10855	10474.132487439493	11
2	10856	10477.676737734446	10
2	10862	10477.71664699885	11
2	10863	10497.676737734446	10
2	10899	10517.676737734446	9
2	10907	10523.061947565838	10
2	10917	10532.691109971625	11
2	10918	10537.676737734446	10
2	10932	10551.966887688199	11
2	10937	10557.676737734446	10
2	10973	10568.091004399791	11
2	10978	10577.676737734446	10
2	10984	10581.452050838367	11
2	10986	10583.686113378446	12
2	10989	10597.676737734446	11
2	11002	10617.676737734446	10
2	11030	10626.78548763365	11
2	11031	10637.676737734446	10
2	11050	10657.676737734446	9
2	11056	10666.407286824827	10
2	11058	10667.30066489594	11
2	11063	10677.676737734446	10
2	11069	10678.362976838554	11
2	11107	10697.676737734446	10
2	11119	10708.6488846462	11
2	11120	10717.676737734446	10
2	11128	10729.819113274317	11
2	11133	10737.676737734446	10
2	11177	10756.619325947523	11
2	11178	10757.676737734446	10
2	11186	10762.456312325638	11
2	11188	10775.578697332963	12
2	11189	10777.676737734446	11
2	11199	10782.630590969946	12
2	11201	10791.905696765655	13
2	11202	10797.676737734446	12
2	11244	10817.676737734446	11
2	11249	10837.676737734446	10
2	11257	10842.394966877031	11
2	11266	10857.676737734446	10
2	11293	10862.165464669283	11
2	11299	10868.927703597561	12
2	11300	10877.676737734446	11
2	11308	10884.619578520874	12
2	11312	10888.512727789258	13
2	11319	10897.676737734446	12
2	11330	10917.676737734446	11
2	11362	10927.525515194936	12
2	11365	10937.676737734446	11
2	11381	10945.70126924481	12
2	11383	10956.04117750439	13
2	11384	10957.676737734446	12
2	11390	10975.93326390198	13
2	11395	10977.676737734446	12
2	11428	10997.676737734446	11
2	11434	11000.647120061142	12
2	11439	11017.676737734446	11
2	11449	11029.744000738611	12
2	11450	11037.676737734446	11
2	11484	11041.349332322426	12
2	11485	11057.676737734446	11
2	11499	11065.469073724725	12
2	11506	11077.676737734446	11
2	11515	11097.676737734446	10
2	11547	11101.670569827919	11
2	11549	11107.571524478257	12
2	11560	11117.676737734446	11
2	11565	11137.676737734446	10
2	11577	11151.218270809947	11
2	11578	11157.676737734446	10
2	11610	11163.575265064192	11
2	11620	11175.518943846048	12
2	11621	11177.676737734446	11
2	11627	11182.338311007839	12
2	11629	11182.533389869244	13
2	11634	11197.676737734446	12
2	11641	11217.676737734446	11
[...]
12	1403	1560	2
12	1449	1620	1
12	1465	1620	2
12	1508	1680	1
12	1525	1680	2
12	1545	1703.600159628207	3
12	1571	1740	2
12	1587	1740	3
12	1594	1743.600159628207	4
12	1630	1783.600159628207	5
12	1647	1800	4
12	1662	1800	5
12	1698	1843.600159628207	6
12	1709	1860	5
12	1728	1860	6
12	1761	1903.600159628207	7
12	1774	1920	6
12	1790	1920	7
12	1845	1980	6
12	1864	1980	7
12	1898	2040	6
12	1953	2083.600159628207	7
12	1962	2100	6
12	1976	2100	7
12	1981	2100	8
12	2027	2160	7
12	2043	2160	8
12	2086	2220	7
12	2114	2223.600159628207	8
12	2144	2280	7
12	2162	2280	8
12	2196	2340	7
12	2213	2340	8
12	2254	2400	7
12	2289	2423.600159628207	8
12	2306	2460	7
12	2321	2460	8
12	2325	2460	9
12	2365	2520	8
12	2384	2520	9
12	2387	2520	10
12	2418	2580	9
12	2437	2580	10
12	2473	2640	9
12	2488	2640	10
12	2534	2700	9
12	2552	2700	10
12	2585	2760	9
12	2604	2760	10
12	2656	2820	9
12	2672	2820	10
12	2727	2880	9
12	2789	2940	8
12	2803	2940	9
12	2807	2940	10
12	2850	3000	9
12	2883	3015.466975669584	10
12	2912	3060	9
12	2928	3060	10
12	2989	3120	9
12	3053	3180	8
12	3070	3180	9
12	3102	3215.466975669584	10
12	3128	3240	9
12	3144	3240	10
12	3195	3300	9
12	3263	3360	8
12	3277	3360	9
12	3282	3360	10
12	3331	3420	9
12	3347	3420	10
12	3406	3480	9
12	3425	3480	10
12	3465	3540	9
12	3478	3540	10
12	3523	3600	9
12	3577	3655.466975669584	10
12	3586	3660	9
12	3605	3660	10
12	3651	3720	9
12	3715	3780	8
12	3734	3780	9
12	3788	3840	8
12	3825	3875.466975669584	9
12	3857	3900	8
12	3879	3900	9
12	3890	3915.466975669584	10
12	3917	3960	9
12	3963	3995.466975669584	10
12	3987	4020	9
12	4004	4020	10
12	4044	4080	9
12	4084	4115.466975669584	10
12	4100	4140	9
12	4165	4200	8
12	4196	4215.466975669584	9
12	4227	4260	8
12	4261	4275.466975669584	9
12	4292	4320	8
12	4311	4320	9
12	4357	4375.466975669584	10
12	4362	4380	9
12	4379	4380	10
12	4424	4440	9
12	4487	4500	8
12	4521	4535.466975669584	9
12	4549	4560	8
12	4567	4560	9
12	4619	4620	8
12	4677	4680	7
12	4731	4715.466975669584	8
12	4755	4740	7
12	4816	4800	6
12	4874	4860	5
12	4890	4860	6
12	4897	4875.466975669584	7
12	4936	4920	6
12	5005	4980	5
12	5072	5040	4
12	5117	5075.466975669584	5
12	5133	5100	4
12	5148	5100	5
12	5151	5100	6
12	5191	5160	5
12	5233	5195.466975669584	6
12	5255	5220	5
12	5269	5220	6
12	5272	5220	7
12	5274	5220	8
12	5287	5235.466975669584	9
12	5312	5280	8
12	5326	5280	9
12	5329	5280	10
12	5379	5340	9
12	5396	5340	10
12	5437	5400	9
12	5468	5415.466975669584	10
12	5499	5460	9
12	5556	5520	8
12	5572	5520	9
12	5617	5580	8
12	5634	5580	9
12	5683	5640	8
12	5742	5700	7
12	5776	5715.466975669584	8
12	5807	5760	7
12	5857	5815.466975669584	8
12	5862	5820	7
12	5879	5820	8
12	5910	5875.466975669584	9
12	5915	5880	8
12	5941	5895.466975669584	9
12	5975	5940	8
12	6040	6000	7
12	6054	6000	8
12	6057	6000	9
12	6059	6000	10
12	6101	6060	9
12	6116	6060	10
12	6165	6120	9
12	6187	6120	10
12	6234	6180	9
12	6251	6180	10
12	6303	6240	9
12	6319	6240	10
12	6357	6300	9
12	6410	6360	8
12	6426	6360	9
12	6470	6420	8
12	6487	6420	9
12	6534	6480	8
12	6576	6515.466975669584	9
12	6588	6540	8
12	6654	6600	7
12	6669	6600	8
12	6716	6655.466975669584	9
12	6725	6660	8
12	6744	6660	9
12	6763	6695.466975669584	10
12	6791	6720	9
12	6808	6720	10
12	6853	6780	9
12	6885	6795.466975669584	10
12	6916	6840	9
12	6931	6840	10
12	6975	6900	9
12	7053	6960	8
12	7110	7015.466975669584	9
12	7115	7020	8
12	7134	7020	9
12	7181	7080	8
12	7198	7080	9
12	7238	7135.466975669584	10
12	7245	7140	9
12	7276	7155.466975669584	10
12	7305	7200	9
12	7364	7260	8
12	7380	7260	9
12	7423	7320	8
12	7480	7380	7
12	7496	7380	8
12	7500	7380	9
12	7524	7435.466975669584	10
12	7529	7440	9
12	7547	7440	10
12	7595	7500	9
12	7611	7500	10
12	7653	7560	9
12	7669	7560	10
12	7721	7620	9
12	7781	7675.466975669584	10
12	7790	7680	9
12	7820	7695.466975669584	10
12	7845	7740	9
12	7865	7740	10
12	7905	7800	9
12	7942	7817.676737734446	10
12	7977	7860	9
12	7993	7860	10
12	8062	7920	9
12	8078	7920	10
12	8129	7980	9
12	8189	8040	8
12	8258	8100	7
12	8275	8100	8
12	8291	8117.676737734446	9
12	8306	8137.676737734446	10
12	8326	8160	9
12	8340	8160	10
12	8392	8220	9
12	8407	8220	10
12	8460	8280	9
12	8480	8280	10
12	8529	8340	9
12	8563	8357.676737734446	10
12	8598	8400	9
12	8654	8460	8
12	8671	8460	9
12	8676	8460	10
12	8713	8520	9
12	8728	8520	10
12	8771	8580	9
12	8824	8617.676737734446	10
12	8840	8640	9
12	8906	8700	8
12	8920	8700	9
12	8946	8737.676737734446	10
12	8968	8760	9
12	8986	8760	10
12	9024	8820	9
12	9039	8820	10
12	9089	8880	9
12	9107	8880	10
12	9155	8940	9
12	9220	9000	8
12	9237	9000	9
12	9241	9000	10
12	9288	9060	9
12	9302	9060	10
12	9355	9120	9
12	9369	9120	10
12	9422	9180	9
12	9480	9240	8
12	9499	9240	9
12	9548	9297.676737734446	10
12	9555	9300	9
12	9631	9360	8
12	9645	9360	9
12	9695	9420	8
12	9714	9420	9
12	9741	9457.676737734446	10
12	9763	9480	9
12	9777	9480	10
12	9830	9540	9
12	9847	9540	10
12	9908	9600	9
12	9925	9600	10
12	9981	9660	9
12	9998	9660	10
12	10049	9720	9
12	10113	9780	8
12	10131	9780	9
12	10177	9840	8
12	10193	9840	9
12	10197	9840	10
12	10246	9900	9
12	10309	9957.676737734446	10
12	10314	9960	9
12	10374	10020	8
12	10389	10020	9
12	10414	10057.676737734446	10
12	10442	10080	9
12	10458	10080	10
12	10506	10140	9
12	10521	10140	10
12	10564	10200	9
12	10584	10200	10
12	10630	10260	9
12	10644	10260	10
12	10686	10320	9
12	10703	10320	10
12	10748	10380	9
12	10763	10380	10
12	10807	10440	9
12	10822	10440	10
12	10876	10500	9
12	10893	10500	10
12	10946	10560	9
12	10960	10560	10
12	11011	10620	9
12	11028	10620	10
12	11074	10680	9
12	11091	10680	10
12	11142	10740	9
12	11163	10740	10
12	11211	10800	9
12	11228	10800	10
12	11275	10860	9
12	11339	10920	8
12	11352	10920	9
12	11355	10920	10
12	11404	10980	9
12	11443	11017.676737734446	10
12	11459	11040	9
12	11474	11040	10
12	11524	11100	9
12	11540	11100	10
12	11587	11160	9
12	11605	11160	10
12	11650	11220	9
12	11667	11220	10
12	11709	11280	9
12	11772	11340	8
12	11787	11340	9
12	11792	11340	10
12	11842	11400	9
12	11860	11400	10
12	11902	11460	9
12	11915	11460	10
12	11962	11520	9
12	11992	11537.676737734446	10
12	12025	11580	9
12	12088	11640	8
12	12100	11640	9
12	12102	11640	10
12	12146	11700	9
12	12199	11737.676737734446	10
12	12215	11760	9
12	12232	11760	10
12	12275	11820	9
12	12290	11820	10
12	12337	11880	9
12	12351	11880	10
12	12405	11940	9
12	12465	12000	8
12	12480	12000	9
12	12483	12000	10
12	12523	12060	9
12	12565	12097.676737734446	10
12	12583	12120	9
12	12616	12137.676737734446	10
12	12651	12180	9
12	12666	12180	10
12	12713	12240	9
12	12729	12240	10
12	12776	12300	9
12	12844	12360	8
12	12859	12360	9
12	12875	12377.676737734446	10
12	12908	12420	9
12	12967	12477.676737734446	10
12	12972	12480	9
12	13040	12540	8
12	13061	12540	9
12	13105	12600	8
12	13120	12600	9
12	13156	12657.676737734446	10
12	13161	12660	9
12	13174	12660	10
12	13213	12720	9
12	13230	12720	10
12	13268	12780	9
12	13284	12780	10
12	13324	12840	9
12	13340	12840	10
12	13386	12900	9
12	13404	12900	10
12	13456	12960	9
12	13526	13020	8
12	13586	13077.676737734446	9
12	13591	13080	8
12	13607	13080	9
12	13655	13140	8
12	13671	13140	9
12	13675	13140	10
12	13720	13200	9
12	13735	13200	10
12	13792	13260	9
12	13811	13260	10
12	13855	13320	9
12	13915	13380	8
12	13976	13440	7
12	14007	13457.676737734446	8
12	14038	13500	7
12	14059	13500	8
12	14104	13560	7
12	14121	13560	8
12	14169	13617.676737734446	9
12	14174	13620	8
12	14189	13620	9
12	14235	13680	8
12	14251	13680	9
12	14254	13680	10
12	14292	13740	9
12	14306	13740	10
12	14360	13800	9
12	14427	13860	8
12	14442	13860	9
12	14446	13860	10
12	14493	13920	9
12	14509	13920	10
12	14557	13980	9
12	14572	13980	10
12	14619	14040	9
12	14634	14040	10
12	14675	14100	9
12	14691	14100	10
12	14746	14160	9
12	14809	14220	8
12	14840	14237.676737734446	9
12	14856	14257.676737734446	10
12	14876	14280	9
12	14892	14280	10
12	14940	14340	9
12	14959	14340	10
12	15005	14400	9
12	15056	14460	8
12	15077	14460	9
12	15117	14517.676737734446	10
12	15122	14520	9
12	15136	14520	10
12	15191	14580	9
12	15257	14640	8
12	15318	14700	7
12	15346	14717.676737734446	8
12	15374	14757.676737734446	9
12	15379	14760	8
12	15447	14820	7
12	15465	14820	8
12	15511	14880	7
12	15528	14880	8
12	15534	14897.676737734446	9
12	15553	14917.676737734446	10
12	15571	14940	9
12	15588	14940	10
12	15631	15000	9
12	15664	15017.676737734446	10
12	15695	15060	9
12	15763	15120	8
12	15783	15120	9
12	15827	15180	8
12	15885	15240	7
12	15902	15240	8
12	15927	15277.676737734446	9
12	15952	15300	8
12	15989	15337.676737734446	9
12	16004	15357.676737734446	10
12	16009	15360	9
12	16026	15360	10
12	16067	15420	9
12	16116	15477.676737734446	10
12	16123	15480	9
12	16138	15480	10
12	16174	15540	9
12	16189	15540	10
12	16222	15600	9
12	16239	15600	10
12	16274	15660	9
12	16294	15660	10
12	16343	15720	9
12	16390	15757.676737734446	10
12	16405	15780	9
12	16464	15837.676737734446	10
12	16469	15840	9
12	16484	15840	10
12	16535	15900	9
12	16594	15960	8
12	16610	15960	9
12	16612	15960	10
12	16658	16020	9
12	16671	16020	10
12	16730	16080	9
12	16745	16080	10
12	16794	16140	9
12	16808	16140	10
12	16855	16200	9
12	16896	16237.676737734446	10
12	16914	16260	9
12	16932	16260	10
12	16981	16320	9
12	16996	16320	10
12	17045	16380	9
12	17058	16380	10
12	17114	16440	9
12	17170	16500	8
12	17183	16500	9
12	17187	16500	10
12	17236	16560	9
12	17288	16620	8
12	17348	16680	7
12	17367	16680	8
12	17407	16740	7
12	17472	16800	6
12	17491	16800	7
12	17494	16800	8
12	17542	16860	7
12	17595	16917.676737734446	8
12	17600	16920	7
12	17636	16937.676737734446	8
12	17651	16957.676737734446	9
12	17679	16980	8
12	17695	16980	9
12	17698	16980	10
12	17750	17040	9
12	17765	17040	10
12	17822	17100	9
12	17884	17160	8
12	17931	17197.676737734446	9
12	17949	17220	8
12	18012	17280	7
12	18029	17280	8
12	18076	17340	7
12	18091	17340	8
12	18141	17400	7
12	18158	17400	8
12	18208	17460	7
12	18225	17460	8
12	18228	17460	9
12	18237	17477.676737734446	10
12	18274	17520	9
12	18291	17520	10
12	18346	17580	9
12	18359	17580	10
12	18396	17640	9
12	18414	17640	10
12	18460	17700	9
12	18474	17700	10
12	18530	17760	9
12	18544	17760	10
12	18591	17820	9
12	18620	17837.676737734446	10
12	18655	17880	9
12	18672	17880	10
12	18717	17940	9
12	18736	17940	10
12	18787	18000	9
12	18815	18017.676737734446	10
12	18844	18060	9
12	18904	18120	8
12	18922	18120	9
12	18925	18120	10
12	18967	18180	9
12	19017	18240	8
12	19043	18257.676737734446	9
12	19062	18300	8
12	19078	18300	9
12	19098	18360	8
12	19113	18360	9
12	19122	18377.676737734446	10
12	19137	18420	9
12	19175	18480	8
12	19190	18480	9
12	19215	18540	8
12	19238	18600	7
12	19255	18600	8
12	19263	18660	7
12	19282	18720	6
12	19308	18780	5
12	19325	18780	6
12	19328	18780	7
12	19333	18840	6
12	19352	18900	5
12	19375	18960	4
12	19391	18960	5
12	19399	19020	4
12	19414	19020	5
12	19419	19020	6
12	19426	19080	5
12	19442	19080	6
12	19445	19080	7
12	19447	19080	8
12	19452	19140	7
12	19475	19200	6
12	19497	19260	5
12	19514	19260	6
12	19519	19320	5
12	19538	19320	6
12	19545	19380	5
12	19560	19380	6
12	19568	19440	5
12	19588	19440	6
12	19594	19500	5
12	19621	19560	4
12	19638	19560	5
12	19645	19620	4
12	19659	19620	5
12	19670	19680	4
12	19688	19740	3
12	19711	19800	2
12	19733	19860	1
12	19758	19920	0
12	19775	19920	1
12	19783	19980	0
12	19802	19980	1
12	19809	20040	0
12	19826	20040	1
12	19833	20100	0
12	19929	20340	1
12	19936	20400	0
12	19948	20400	1
12	19955	20460	0
12	20013	20580	1
12	20019	20640	0
12	20051	20700	1
12	20060	20760	0
12	20071	20760	1
12	20077	20820	0
12	20110	20880	1
12	20116	20940	0
12	20194	21180	1
12	20197	21180	2
12	20202	21240	1
12	20213	21240	2
12	20219	21300	1
12	20233	21300	2
12	20236	21300	3
12	20241	21360	2
12	20256	21420	1
12	20271	21480	0
12	20284	21480	1
12	20290	21540	0
12	20320	21600	1
12	20324	21600	2
12	20329	21660	1
12	20340	21660	2
12	20346	21720	1
12	20356	21720	2
12	20361	21780	1
12	20367	21780	2
12	20372	21840	1
12	20382	21840	2
12	20387	21900	1
12	20394	21960	0
13	110	240	224.08250990868
13	327	480	347.13578589896
13	387	540	216.45446065391
13	628	780	562.38446389113
13	629	780	392.34297917373
13	805	960	871.60627433969
13	865	1020	596.64739327068
13	866	1020	326.05536944056
13	983	1140	838.37870133001
13	987	1140	369.71929136672
13	1278	1440	1093.7160476636
13	1396	1560	642.53516935115
13	1397	1560	1106.5146866052
13	1514	1680	1259.6216386557
13	1515	1680	445.66810570818
13	1578	1740	1264.696458723
13	1654	1800	797.95225514122
13	1719	1860	1517.464568984
13	2033	2160	803.47394365061
13	2096	2220	565.42895237905
13	2204	2340	1301.3241725003
13	2263	2400	1810.3068638303
13	2314	2460	806.52709983008
13	2594	2760	870.49403176818
13	2735	2880	920.80687203801
13	2995	3120	742.41590635578
13	3205	3300	1949.9579259203
13	3340	3420	751.9285457585
13	3412	3480	1578.2219475734
13	3471	3540	824.63926232319
13	3474	3540	766.17395008641
13	3529	3600	2585.5003082617
13	3594	3660	3206.2413950366
13	3657	3720	2422.3185405554
13	3658	3720	880.37467986519
13	3659	3720	3666.8904256672
13	3660	3720	769.45982784726
13	3721	3780	3428.991913542
13	3795	3840	2806.7575339072
13	3797	3840	1346.5066479709
13	3994	4020	2660.6411029547
13	3996	4020	2935.1613770511
13	4052	4080	2495.3157390857
13	4106	4140	1123.1671427798
13	4173	4200	3292.9925699529
13	4175	4200	1473.5538928549
13	4432	4440	1443.150154955
13	4495	4500	1250.8329921213
13	4497	4500	3742.4218456793
13	4627	4620	1368.7267037373
13	4822	4800	1266.6880485637
13	4825	4800	1356.8307617631
13	4881	4860	3245.5030352596
13	4884	4860	983.62653338295
13	5139	5100	1663.2253750179
13	5264	5220	1599.2880535352
13	5320	5280	1544.5319464454
13	5322	5280	1914.04803281
13	5386	5340	1904.5941525256
13	5446	5400	1137.7889727947
13	5505	5460	2686.228087578
13	5566	5520	1464.1801018013
13	5627	5580	869.61911945744
13	5689	5640	1693.1924227971
13	5749	5700	1053.5054398613
13	5814	5760	4638.8537276012
13	5870	5820	2180.527891223
13	5921	5880	2083.2533155716
13	6049	6000	1042.6210212919
13	6107	6060	1628.7805868909
13	6310	6240	927.52993138095
13	6365	6300	1099.9055903285
13	6922	6840	1604.0044428543
13	6924	6840	1802.2696290698
13	7063	6960	2380.6047274486
13	7312	7200	3986.0577117848
13	7313	7200	3761.868257457
13	7374	7260	2897.0961681966
13	7602	7500	1465.9312905632
13	7662	7560	2373.116368278
13	7798	7680	866.49578756953
13	7799	7680	1493.9776686427
13	7855	7740	816.81019945082
13	8136	7980	2262.5432250007
13	8268	8100	1497.1225148312
13	8399	8220	822.57499826405
13	8604	8400	819.96822121847
13	8606	8400	2652.8642756602
13	8719	8520	2113.2364037162
13	8720	8520	1994.2033686362
13	8781	8580	4658.2539846771
13	8849	8640	818.65651714196
13	8912	8700	2083.767150478
13	8913	8700	863.21322523071
13	8915	8700	3493.7232365244
13	8974	8760	6832.8342832218
13	9033	8820	911.01519557616
13	9641	9360	1137.8642241106
13	9702	9420	1140.3037284845
13	10057	9720	3802.0482441169
13	10320	9960	3979.3176592364
13	10382	10020	1095.7955974231
13	10383	10020	1750.5366470016
13	10451	10080	1005.3213119849
13	10637	10260	2186.5258834778
13	10817	10440	3402.7474832094
13	11017	10620	2732.6006096427
13	11021	10620	1583.8045860646
13	11281	10860	2875.5055584027
13	11284	10860	1638.5744918241
13	11348	10920	1325.0368941052
13	11413	10980	2245.3542694627
13	11414	10980	2304.9538080521
13	11718	11280	1295.5920107779
13	11719	11280	1833.2515158067
13	11908	11460	3105.914391917
13	11909	11460	10723.465381519
13	12094	11640	1278.4791701963
13	12095	11640	1183.4831983936
13	12096	11640	2851.5726265762
13	12155	11700	1696.6447395653
13	12344	11880	4907.2499329684
13	12411	11940	4051.756935561
13	12475	12000	5224.8510510562
13	12590	12120	2774.6405800338
13	12592	12120	2556.6003692932
13	12661	12180	1338.4467154332
13	13111	12600	3300.4936409246
13	13167	12660	1900.9278446588
13	13168	12660	1261.1573070121
13	13276	12780	1233.7272837727
13	13277	12780	1145.1418586104
13	13333	12840	1842.8538129607
13	13465	12960	1173.3692611354
13	13600	13080	1879.1980626545
13	13726	13200	1977.3499861277
13	13798	13260	988.24609764391
13	13863	13320	1024.5893600256
13	13925	13380	3174.5846293853
13	14181	13620	2681.7198654797
13	14182	13620	3089.4699215721
13	14242	13680	2639.3024525623
13	14302	13740	4267.9247527386
13	14366	13800	4300.6054467213
13	14369	13800	2315.8052324697
13	14433	13860	1016.1522445898
13	14567	13980	947.45035930858
13	14626	14040	1013.7415285601
13	14685	14100	4433.8404174178
13	14755	14160	1005.4221870163
13	14816	14220	3793.1794030403
13	15011	14400	4351.5695506914
13	15014	14400	3032.7459964518
13	15200	14580	904.07024595137
13	15327	14700	2176.8300478305
13	15517	14880	5111.9301175216
13	15580	14940	951.53889693479
13	15637	15000	5428.960405774
13	15641	15000	5144.8489414701
13	15701	15060	2292.9612024312
13	15891	15240	4544.6280460692
13	15895	15240	978.01250865573
13	16180	15540	4480.9774957894
13	16412	15780	1006.0781603891
13	16478	15840	2078.5007961963
13	16602	15960	2218.3652199732
13	16667	16020	1111.6637638565
13	16991	16320	1781.5880476791
13	17051	16380	1024.0087380073
13	17053	16380	1095.0678052821
13	17123	16440	1757.4824409487
13	17243	16560	1713.4406144176
13	17245	16560	5913.6702006944
13	17415	16740	876.6129871066
13	17550	16860	1619.1038931399
13	17551	16860	789.87440856734
13	17552	16860	920.26744542193
13	17609	16920	1541.7595962414
13	17832	17100	6379.4547701267
13	17892	17160	3557.5047011519
13	18020	17280	1450.4132847451
13	18149	17400	2499.2682497538
13	18284	17520	827.88902735539
13	18352	17580	2217.1602658828
13	18354	17580	5551.8169696486
13	18403	17640	946.7795639629
13	18466	17700	936.21172207498
13	18536	17760	2183.0488339526
13	18599	17820	4170.4269769355
13	18665	17880	3328.7696439542
13	18797	18000	4795.7968978061
13	19027	18240	1546.6149051509
13	19068	18300	1160.3872896702
13	19071	18300	977.94308581414
13	19107	18360	1001.2638236883
13	19144	18420	1170.3038421669
13	19224	18540	4074.0016781482
13	19269	18660	7766.7208851962
13	19270	18660	1715.0683337688
13	19272	18660	2149.1929224214
13	19316	18780	1631.7197742744
13	19340	18840	2580.4205011633
13	19341	18840	1177.1869569903
13	19342	18840	2774.329879229
13	19358	18900	5059.3536652389
13	19381	18960	2129.1339596383
13	19459	19140	3290.5836437176
13	19483	19200	1295.5061508756
13	19484	19200	1732.3040934795
13	19504	19260	3549.5746314414
13	19505	19260	1364.2607390377
13	19551	19380	2892.2875112413
13	19627	19560	2591.5634490177
13	19676	19680	1839.8997999594
13	19677	19680	2248.1839555025
13	19694	19740	6788.8283808613
13	19719	19800	2842.258015898
13	19720	19800	2724.9083778716
13	19815	20040	2681.5492250077
13	19842	20100	3335.6700087144
13	19862	20160	2371.8744026175
13	19863	20160	3110.5502750647
13	19864	20160	4489.4018211077
13	19882	20220	2543.1069265947
13	19903	20280	3353.2795171739
13	19944	20400	10881.930255837
13	20027	20640	4665.1463065395
13	20104	20880	3449.1062966081
13	20107	20880	5007.3739238014
13	20124	20940	3576.4016590087
13	20161	21060	3314.7183189163
13	20162	21060	5192.4892589708
13	20174	21120	6543.0643430411
13	20246	21360	4272.6303104438
13	20260	21420	8213.3141412932
13	20277	21480	3651.9977890326
13	20351	21720	10487.740106338
13	20364	21780	5118.3156772978
13	20377	21840	4313.9469636158
13	20389	21900	14067.867421058
13	20421	22080	4741.840838163
13	20422	22080	5995.3796176339
13	20443	22260	4540.6479290543

