version 2
run General-0-20190508-14:28:33-4536
attr configname General
attr datetime 20190508-14:28:33
attr experiment General
attr inifile omnetpp.ini
attr iterationvars ""
attr iterationvarsf ""
attr measurement ""
attr network AmusementAlt3
attr processid 4536
attr repetition 0
attr replication #0
attr resultdir results
attr runnumber 0
attr seedset 0
param **.Source.interArrivalTime exponential(20s)
param **.TicketBooth1.serviceTime "truncnormal(75s, 15s)"
param **.TicketBooth2.serviceTime "truncnormal(75s, 15s)"
param **.TicketBooth3.serviceTime "truncnormal(75s, 15s)"
param **.TicketBooth4.serviceTime "truncnormal(75s, 15s)"
param **.SecurityBooth1.serviceTime "truncnormal(30s, 10s)"
param **.SecurityBooth2.serviceTime "truncnormal(30s, 10s)"
param **.Source.numJobs 1500
param **.Source.startTime 0s
param **.Source.stopTime 18000s

vector 0 AmusementAlt3.TicketQueue1 queueLength:vector ETV
attr interpolationmode sample-hold
attr title "queue length, vector"
vector 1 AmusementAlt3.SecurityQueue1 queueLength:vector ETV
attr interpolationmode sample-hold
attr title "queue length, vector"
vector 2 AmusementAlt3.EnterPark lifeTime:vector ETV
attr interpolationmode none
attr title "lifetime of arrived jobs, vector"
attr unit s
0	0	0	0
0	94	351.363291923418	1
0	95	369.673613619676	0
0	100	381.128388438452	1
0	102	384.033948984296	2
0	104	384.413320368318	3
0	105	385.308885112586	2
0	110	392.248736581852	3
0	111	392.671346773211	2
0	118	411.439696129217	3
0	123	418.108988981467	2
0	127	421.085248975908	1
0	132	423.394617665585	2
0	134	445.372867016604	3
0	140	466.549549646356	4
0	141	472.568906454161	3
0	145	481.582187534918	2
0	149	482.374861853129	1
0	153	488.7614985601	2
0	155	489.545161688362	3
0	157	501.091647904492	4
0	163	514.91606050592	3
0	168	521.209068007823	4
0	170	524.727338916335	5
0	173	545.347310621478	4
0	177	546.591222040485	3
0	180	549.83143036799	2
0	189	585.924656800043	1
0	197	601.343379589656	0
0	252	766.557893875296	1
0	254	777.255581390434	2
0	257	784.324576904098	1
0	263	811.612135474546	0
0	279	831.042232867295	1
0	284	838.713437149267	2
0	287	860.454978518248	1
0	293	872.300426777881	0
0	298	875.659990169304	1
0	300	893.32257100849	2
0	303	898.323794573796	1
0	309	899.448980218601	0
0	314	909.418519004518	1
0	318	915.712952221611	2
0	321	930.653647790753	1
0	328	940.043125290343	2
0	330	945.763544740504	3
0	331	946.154473589433	2
0	336	973.984032926392	3
0	337	974.863775087152	2
0	341	975.330499886341	1
0	348	990.968449157681	2
0	349	999.799479994991	1
0	352	1005.542069425209	0
0	406	1166.479123944893	1
0	408	1173.27241859654	2
0	410	1180.124411090502	3
0	411	1187.416048151201	2
0	416	1189.79712482229	3
0	417	1190.100902510932	2
0	422	1192.708604391247	3
0	424	1201.449164666726	4
0	427	1218.51721741784	3
0	432	1219.323746232836	4
0	433	1221.568364443951	3
0	443	1262.307500556834	2
0	447	1263.013042274958	1
0	451	1276.54818958556	0
0	466	1313.114845725235	1
0	467	1325.106497115566	0
0	474	1325.784098079689	1
0	477	1353.982594121227	0
0	502	1413.336362768582	1
0	504	1414.01209847962	2
0	506	1415.445606165878	3
0	507	1430.004415803963	2
0	511	1431.151423166694	1
0	519	1460.548176319511	0
0	548	1535.383545237624	1
0	550	1539.133924261679	2
0	554	1570.702178703798	3
0	555	1576.184680462714	2
0	559	1579.467214751071	1
0	564	1583.154125583366	2
0	565	1583.250375157024	1
0	569	1583.801261676272	2
0	574	1597.665257067023	3
0	578	1614.883729800637	4
0	579	1615.292155784477	3
0	583	1627.709589737853	2
0	587	1638.903147931476	3
0	596	1654.244741022922	4
0	597	1658.71679151663	3
0	601	1671.654273526117	2
0	608	1682.038282298432	3
0	610	1686.158923268093	4
0	612	1691.096108644069	5
0	613	1693.790818241833	4
0	617	1701.336240832149	3
0	628	1748.877620482046	4
0	629	1750.193500251688	3
0	634	1750.660706281951	4
0	635	1757.392639398215	3
0	640	1758.13410216984	4
0	641	1767.513010304658	3
0	650	1777.362893601264	4
0	652	1778.755247022736	5
0	653	1781.960757363342	4
0	660	1805.993881508848	5
0	664	1821.376277530777	6
0	665	1822.154891369078	5
0	671	1830.057677489548	4
0	675	1833.409005820806	3
0	679	1834.540006887185	2
0	683	1840.057484182882	3
0	685	1847.771238063787	4
0	693	1890.12369941534	3
0	698	1894.728113292374	4
0	699	1894.966621896076	3
0	706	1914.558199150318	4
0	707	1916.04072687572	3
0	714	1925.64161573128	4
0	715	1928.141172031824	3
0	721	1956.086462871583	2
0	727	1970.07656073727	1
0	734	1986.705309123147	2
0	735	1996.804697132081	1
0	741	2011.204153229536	0
0	782	2122.478157209506	1
0	783	2123.045037369582	0
0	794	2141.812534487876	1
0	797	2158.436085089304	0
0	814	2203.129215309022	1
0	815	2209.742629316604	0
0	826	2225.960144859253	1
0	828	2228.073888341346	2
0	830	2229.376145637079	3
0	832	2229.707467525511	4
0	833	2233.794747898113	3
0	842	2245.93028797007	4
0	843	2263.758649315541	3
0	847	2273.195923514541	2
0	851	2276.686862259601	3
0	857	2289.283475083452	2
0	862	2291.051791861763	3
0	866	2299.3063891963	4
0	870	2304.234705640555	5
0	871	2330.193930904884	4
0	875	2343.285797474402	3
0	879	2356.936699431725	2
0	883	2369.413125184248	3
0	884	2373.939989070758	2
0	894	2394.070734444863	3
0	895	2407.090355840038	2
0	902	2413.310972976664	3
0	905	2418.393872452062	2
0	909	2420.122887675554	1
0	915	2434.578979815606	0
0	919	2452.965951068732	1
0	921	2462.161777424248	2
0	926	2472.731121990284	3
0	931	2495.007876070434	2
0	935	2495.506676841772	1
0	939	2506.963101185004	0
0	943	2507.263789585129	1
0	944	2507.844961411046	0
0	951	2524.106515641875	1
0	957	2560.48637124095	0
0	962	2571.514267254156	1
0	963	2571.728848096001	0
0	975	2583.985554639393	1
0	976	2591.88545814859	0
0	996	2646.739995677905	1
0	997	2649.14957526095	0
0	1004	2669.367571029994	1
0	1007	2676.751758706614	0
0	1012	2680.28072532534	1
0	1014	2689.810296977297	2
0	1015	2690.915821515481	1
0	1020	2715.779209689391	2
0	1025	2728.308071554888	1
0	1029	2729.718498092155	0
0	1044	2756.700621544797	1
0	1045	2765.054821424782	0
0	1050	2768.064031219644	1
0	1055	2793.417970727218	0
0	1076	2846.083439009186	1
0	1078	2846.278147195997	2
0	1079	2846.865699663385	1
0	1086	2852.649824153578	2
0	1087	2863.269291939886	1
0	1091	2874.391424850418	0
0	1098	2882.859056178059	1
0	1102	2897.489962960713	2
0	1103	2900.076303078091	1
0	1109	2906.855760306115	0
0	1124	2951.608461005651	1
0	1127	2953.110729912168	0
0	1132	2955.092364213136	1
0	1134	2961.595781622907	2
0	1135	2962.268877721522	1
0	1142	2977.092629212986	2
0	1143	2996.263814952436	1
0	1149	2999.28496060329	0
0	1262	3436.135867482044	1
0	1264	3444.9174071938	2
0	1265	3452.50443430454	1
0	1270	3456.6527833274	2
0	1272	3460.749828670331	3
0	1273	3477.784635498103	2
0	1279	3490.148022878807	1
0	1286	3498.082638073945	2
0	1287	3516.548685034749	1
0	1291	3531.474457794308	0
0	1303	3544.22300963413	1
0	1305	3544.537592109629	2
0	1310	3558.930490063399	3
0	1311	3559.830753050379	2
0	1315	3560.340529030609	3
0	1317	3561.000608731736	4
0	1319	3565.999625064731	5
0	1326	3583.356862462481	6
0	1327	3585.228987463081	5
0	1332	3586.166376801581	6
0	1335	3607.165037694705	5
0	1343	3624.851947397075	4
0	1347	3634.601315463724	3
0	1354	3666.117646335981	4
0	1357	3674.760789269415	3
0	1362	3679.596515220355	4
0	1363	3682.864703300025	3
0	1368	3687.097754082731	4
0	1370	3692.623857941282	5
0	1373	3713.986100105924	4
0	1378	3715.637109799871	5
0	1382	3737.560961020058	6
0	1385	3743.680328256214	5
0	1391	3766.257533031138	4
0	1395	3771.155661522334	3
0	1399	3772.800426852248	2
0	1403	3789.873779668501	3
0	1409	3824.105699363115	2
0	1414	3825.155527512273	3
0	1415	3829.681142222312	2
0	1422	3837.078965340209	3
0	1423	3844.419615579361	2
0	1431	3861.715476707978	1
0	1439	3913.579670897976	0
0	1612	4509.342101895149	1
0	1615	4519.241368838242	0
0	1694	4800.746230014253	1
0	1695	4803.631675885023	0
0	1706	4832.617219219524	1
0	1707	4833.37433307378	0
0	1716	4849.831513369802	1
0	1717	4855.15962371098	0
0	1828	5196.602854268729	1
0	1832	5202.264302985678	2
0	1833	5212.949199565999	1
0	1837	5241.962423527416	0
0	1876	5341.670384620896	1
0	1877	5343.449781356534	0
0	1882	5354.54488073794	1
0	1887	5374.089754420903	0
0	1902	5407.942645067198	1
0	1904	5416.936912426121	2
0	1905	5431.575531444456	1
0	1909	5432.228820929681	0
0	1914	5435.128326523578	1
0	1916	5443.077908122043	2
0	1917	5444.570318767537	1
0	1921	5450.016485785137	2
0	1923	5451.322357698056	3
0	1931	5496.551799375029	2
0	1936	5503.315822604961	3
0	1938	5508.762847132056	4
0	1941	5526.521670847652	3
0	1945	5528.005774274955	2
0	1949	5548.330438840604	1
0	1956	5553.027391762752	2
0	1958	5555.063704602293	3
0	1959	5557.521425818324	2
0	1966	5576.465354394853	3
0	1969	5585.08183727674	2
0	1973	5589.13686940585	1
0	1976	5590.089386897203	0
0	1980	5597.993163583206	1
0	1989	5624.596623285454	0
0	2026	5721.714947553949	1
0	2027	5722.368898831846	0
0	2034	5724.210809399161	1
0	2039	5757.796413511582	0
0	2058	5794.2982916249	1
0	2061	5807.776180524192	0
0	2066	5817.39778229627	1
0	2068	5817.57721004295	2
0	2070	5819.623579634401	3
0	2072	5821.51491436442	4
0	2075	5835.24265549008	3
0	2080	5835.289131243542	4
0	2082	5837.320106655162	5
0	2084	5841.023227724873	6
0	2087	5855.910401553467	5
0	2091	5865.34307566442	4
0	2097	5877.407024592386	3
0	2105	5892.046152633356	2
0	2109	5923.664425292684	1
0	2113	5924.928600127312	2
0	2115	5931.257147951067	3
0	2116	5935.85177631051	2
0	2126	5943.516493324702	3
0	2128	5951.970289086043	4
0	2129	5954.575326937394	3
0	2132	5979.789287758729	2
0	2142	5990.834300212575	3
0	2143	5991.210037282344	2
0	2150	6009.900018837028	3
0	2151	6010.409712753806	2
0	2154	6012.262345326976	1
0	2160	6039.04818250132	0
0	2170	6058.966135667092	1
0	2172	6066.710085011913	2
0	2177	6075.106213560131	1
0	2181	6076.423396254566	0
0	2194	6116.035378322284	1
0	2195	6117.676592144627	0
0	2254	6290.760653886967	1
0	2256	6296.91942979858	2
0	2258	6300.035813520781	3
0	2260	6301.404591028446	4
0	2262	6315.825639116839	5
0	2264	6317.182756677797	6
0	2266	6322.220252371676	7
0	2267	6350.478450607989	6
0	2271	6350.719971340565	5
0	2278	6361.017487563493	6
0	2279	6365.951081428472	5
0	2283	6372.387854161858	4
0	2294	6406.531887224961	5
0	2296	6415.130331279736	6
0	2298	6416.590582156581	7
0	2299	6430.56711561522	6
0	2303	6433.035191767216	5
0	2307	6433.06330208328	4
0	2310	6436.677166448733	3
0	2314	6447.008100309248	4
0	2316	6469.036021875398	5
0	2324	6492.510376432887	6
0	2327	6502.812982907308	5
0	2331	6505.66791088121	4
0	2338	6509.845197846215	5
0	2340	6515.891760607193	6
0	2341	6516.75844143204	5
0	2345	6518.720802706984	6
0	2351	6533.597384073242	5
0	2356	6541.618531696365	6
0	2358	6551.68705400545	7
0	2362	6555.17043842758	8
0	2364	6560.477837583078	9
0	2366	6561.436581574721	10
0	2367	6564.073756557953	9
0	2374	6579.04695034091	10
0	2375	6580.299267380757	9
0	2380	6582.981364113497	10
0	2383	6597.130173325766	9
0	2387	6601.882776608874	8
0	2391	6606.171683433616	9
0	2398	6620.342404942416	10
0	2399	6638.281426611288	9
0	2405	6640.325175566117	8
0	2412	6656.544625171648	9
0	2413	6658.408209550454	8
0	2419	6696.959635033551	7
0	2424	6698.52099374313	8
0	2427	6702.806033654668	7
0	2434	6715.644316891219	8
0	2438	6727.405193124762	9
0	2439	6730.718240238378	8
0	2443	6732.094823194783	7
0	2450	6749.440431471069	8
0	2452	6758.896302365283	9
0	2453	6759.421464443997	8
0	2459	6772.056519855085	7
0	2465	6793.501280025864	6
0	2472	6804.0380451979	7
0	2475	6836.338588609697	6
0	2479	6849.727621625376	5
0	2484	6855.253923493254	6
0	2487	6870.012365224711	5
0	2491	6870.236240075104	4
0	2495	6870.588431135807	5
0	2499	6904.78152867106	4
0	2506	6907.600144067527	5
0	2509	6914.882567078655	4
0	2513	6918.266109775995	3
0	2517	6938.073549674332	4
0	2518	6940.267348943898	3
0	2522	6940.35076282045	4
0	2530	6951.663221240895	5
0	2532	6954.163732217748	6
0	2535	6980.115195709062	5
0	2540	6983.755235044371	6
0	2541	6987.296085035961	5
0	2544	6990.119734588073	4
0	2551	6993.70016444122	5
0	2553	6994.201456192285	6
0	2555	6995.017746199301	7
0	2557	6995.167673088272	8
0	2558	6999.115079628951	7
0	2562	7015.584321469325	8
0	2566	7023.731714564661	7
0	2573	7039.212429441151	8
0	2577	7045.30606311043	7
0	2583	7064.002341553521	6
0	2586	7065.063554447636	5
0	2592	7076.24749630605	4
0	2602	7100.940372218926	5
0	2604	7108.71304354355	6
0	2606	7112.756182268588	7
0	2609	7123.981030559798	6
0	2615	7129.945076542825	5
0	2620	7131.656542080824	6
0	2622	7131.667464480006	7
0	2624	7135.346943352615	8
0	2625	7136.551960965541	7
0	2629	7146.428626249568	8
0	2634	7152.568173900414	9
0	2635	7155.70312300498	8
0	2643	7188.717836419209	7
0	2647	7196.929135440441	6
0	2654	7206.449327600058	7
0	2655	7216.595939390432	6
0	2662	7228.221651061129	7
0	2663	7232.093923042244	6
0	2671	7261.120101249309	5
0	2676	7261.641382565	6
0	2679	7271.465169771663	5
0	2686	7289.779993470525	6
0	2690	7293.577828619784	7
0	2691	7303.69592814359	6
0	2695	7306.364009607858	5
0	2702	7328.414109049032	6
0	2703	7341.955812855867	5
0	2710	7354.845911172634	6
0	2713	7366.958508669557	5
0	2717	7369.746900378178	4
0	2721	7375.199731632486	3
0	2725	7379.123122433896	4
0	2729	7400.404174012812	3
0	2738	7429.514925613016	4
0	2741	7430.69165877649	3
0	2745	7440.913661964097	2
0	2750	7443.787148678093	3
0	2752	7450.436187109773	4
0	2757	7461.792603967752	3
0	2762	7474.102977576936	4
0	2765	7489.221771390257	3
0	2769	7511.424783627984	2
0	2773	7518.275794275713	1
0	2782	7540.146656625998	2
0	2783	7547.523648086447	1
0	2790	7564.828257160784	2
0	2792	7572.440075147033	3
0	2793	7576.145976357005	2
0	2798	7577.005007611001	3
0	2802	7585.848011049573	4
0	2804	7592.931983331291	5
0	2805	7593.465805168863	4
0	2811	7606.740566240876	3
0	2815	7613.702171853578	2
0	2824	7642.227186059718	3
0	2827	7655.837673437991	2
0	2831	7663.717640195741	1
0	2836	7665.30246132705	2
0	2837	7679.325751581798	1
0	2840	7691.358074408399	0
0	2850	7705.492633661061	1
0	2852	7709.272203995422	2
0	2857	7724.13788593415	1
0	2862	7728.685518952339	2
0	2863	7741.039822837478	1
0	2867	7756.412690612415	0
0	2884	7787.398490669955	1
0	2887	7792.81283822294	0
0	2892	7804.536952699665	1
0	2894	7807.09635159699	2
0	2895	7817.782122805069	1
0	2901	7843.326302259863	0
0	2908	7862.36588040875	1
0	2910	7863.537057375205	2
0	2911	7868.598746687547	1
0	2918	7877.29455280486	2
0	2919	7878.213303015129	1
0	2923	7885.476546018354	0
0	2932	7917.118865614766	1
0	2933	7922.136849088329	0
0	2948	7947.457113037849	1
0	2950	7949.655168541623	2
0	2953	7953.442848894546	1
0	2958	7965.832842313967	2
0	2960	7971.427978361805	3
0	2962	7972.214383360381	4
0	2963	7979.501604510893	3
0	2969	8009.401982505022	2
0	2975	8013.140690456778	1
0	2981	8038.059844969006	0
0	2986	8038.685625888434	1
0	2990	8045.767401890364	2
0	2991	8053.079998624639	1
0	2995	8064.443029932737	0
0	3010	8101.046139372	1
0	3013	8112.026791819609	0
0	3030	8135.500652732311	1
0	3031	8136.652422477282	0
0	3038	8167.147465738093	1
0	3039	8171.54736552714	0
0	3078	8305.177656648632	1
0	3079	8315.4471911081	0
0	3084	8343.676373401841	1
0	3085	8352.560026516529	0
0	3092	8356.854544338594	1
0	3093	8360.942522144913	0
0	3098	8363.427785491983	1
0	3100	8367.311605067602	2
0	3101	8379.836352862523	1
0	3109	8399.209204253363	0
0	3130	8459.219832873221	1
0	3133	8461.182179666237	0
0	3170	8552.750178884431	1
0	3171	8553.543186134793	0
0	3178	8576.533540374562	1
0	3179	8579.506943085539	0
0	3186	8591.00246037587	1
0	3187	8593.377925039098	0
0	3194	8608.735503068011	1
0	3196	8608.937796580503	2
0	3197	8614.110150836168	1
0	3204	8618.05963189504	2
0	3206	8618.959065253802	3
0	3209	8631.552263659384	2
0	3214	8636.029698660741	3
0	3216	8636.652517329733	4
0	3220	8642.256746891837	5
0	3222	8647.33946514905	6
0	3224	8649.993845745985	7
0	3225	8658.511854835358	6
0	3231	8686.453800324476	5
0	3239	8704.574646133705	4
0	3244	8711.435618550474	5
0	3246	8712.394056892351	6
0	3247	8719.930614080201	5
0	3253	8724.243206652578	4
0	3258	8725.839729125635	5
0	3262	8753.099195759436	6
0	3263	8754.395310785772	5
0	3270	8772.477203817277	6
0	3272	8775.353430913109	7
0	3273	8783.388579390907	6
0	3279	8797.032888958916	5
0	3285	8799.464734306262	4
0	3290	8805.479884158356	5
0	3291	8811.044042986681	4
0	3295	8811.305653826248	5
0	3304	8868.900529452922	6
0	3306	8874.686516016317	7
0	3307	8878.488014161195	6
0	3311	8879.877803452951	5
0	3315	8884.150120709127	4
0	3318	8891.099018119	3
0	3322	8900.102238403879	4
0	3327	8915.451116864619	5
0	3331	8928.675139149177	4
0	3338	8935.15892175563	5
0	3340	8939.610034495216	6
0	3341	8943.84444729006	5
0	3347	8951.631546462526	4
0	3354	8960.728252481507	5
0	3356	8961.007493846603	6
0	3358	8961.279509366363	7
0	3361	8968.928104321568	6
0	3370	9009.810020548709	7
0	3371	9016.201845765385	6
0	3375	9029.150153366508	5
0	3379	9029.401452372935	4
0	3382	9039.820202871886	3
0	3389	9044.523389538803	4
0	3396	9067.653404861921	5
0	3398	9067.881806592792	6
0	3400	9083.854383201531	7
0	3403	9088.343330504497	6
0	3407	9092.980243991677	5
0	3412	9098.171312147904	6
0	3413	9112.982405454885	5
0	3416	9112.998744596634	4
0	3420	9118.654807727938	5
0	3432	9175.486826844826	6
0	3433	9187.893174973276	5
0	3437	9188.460561412114	4
0	3443	9196.442110557743	3
0	3447	9199.75305015376	2
0	3454	9220.737042920625	3
0	3456	9223.775780092787	4
0	3460	9229.360100858452	5
0	3463	9261.891878739613	4
0	3467	9264.202702656605	3
0	3471	9268.820586832404	2
0	3474	9278.982580795152	1
0	3484	9297.790835781761	2
0	3489	9342.697709074556	1
0	3493	9369.199681853177	0
0	3498	9370.041526645978	1
0	3500	9370.385680508903	2
0	3501	9370.776503805683	1
0	3504	9373.00626045543	0
0	3514	9394.751936032175	1
0	3519	9440.965288233644	0
0	3538	9478.821735278203	1
0	3539	9483.447456380605	0
0	3543	9491.086745708635	1
0	3548	9495.619640077315	2
0	3550	9500.300781003135	3
0	3554	9509.156579444033	4
0	3555	9513.248900461101	3
0	3562	9518.567868968204	4
0	3564	9524.665788854586	5
0	3566	9525.826257477823	6
0	3567	9533.167230376264	5
0	3572	9540.591760056213	6
0	3575	9542.286811281728	5
0	3579	9542.40906640255	4
0	3583	9545.206796795752	5
0	3587	9582.581390059328	4
0	3593	9603.059090208334	3
0	3599	9607.578246299503	2
0	3603	9610.819200377612	3
0	3608	9620.012060938491	4
0	3610	9620.053396255357	5
0	3614	9643.864452190652	6
0	3616	9648.300125177308	7
0	3617	9648.64014976835	6
0	3623	9650.739091775713	5
0	3628	9658.935443812886	6
0	3633	9690.929128569697	5
0	3637	9692.268980584683	4
0	3641	9706.680000480907	3
0	3648	9717.997286711329	4
0	3652	9731.722629861747	5
0	3653	9742.871285594687	4
0	3659	9753.672548433194	3
0	3664	9754.745585144733	4
0	3666	9759.728363048136	5
0	3667	9764.448034980399	4
0	3674	9768.340873170055	5
0	3675	9771.221980609981	4
0	3682	9777.375717293681	5
0	3684	9783.634594367745	6
0	3686	9791.728831673563	7
0	3692	9823.943166048921	8
0	3693	9827.164806180702	7
0	3697	9828.547291992223	6
0	3701	9833.067143761078	5
0	3704	9857.685774093948	4
0	3714	9877.78154553545	5
0	3719	9911.168586941143	4
0	3724	9922.425414387522	5
0	3726	9924.155669916806	6
0	3727	9924.890773968332	5
0	3731	9927.824095928468	4
0	3735	9942.016207708217	5
0	3740	9947.683964711678	6
0	3741	9952.754130565619	5
0	3745	9957.517635615155	6
0	3751	9976.399918415627	5
0	3756	9976.708935185454	6
0	3758	9986.580063958336	7
0	3761	9997.341070374038	6
0	3766	10004.991740420284	7
0	3768	10007.904940383655	8
0	3769	10015.458784118471	7
0	3772	10019.163897475187	6
0	3782	10033.781702516039	7
0	3784	10038.219362877323	8
0	3785	10039.10955497529	7
0	3791	10062.640509284662	6
0	3798	10076.079659546503	7
0	3799	10086.094788475781	6
0	3807	10104.162493400752	5
0	3812	10116.40687792414	6
0	3814	10116.408089360041	7
0	3817	10122.454667935298	6
0	3822	10125.965383147771	7
0	3826	10143.192591477923	8
0	3829	10147.750430863292	7
0	3834	10149.950123016178	8
0	3836	10157.121054708299	9
0	3838	10164.49970580341	10
0	3839	10166.448108190717	9
0	3845	10175.467060614043	8
0	3849	10177.344984389864	7
0	3856	10192.70059161817	8
0	3861	10221.705689672629	7
0	3866	10226.472924086437	8
0	3867	10228.950907936086	7
0	3872	10236.219633503667	8
0	3873	10238.977576560743	7
0	3876	10248.556762956699	6
0	3886	10269.179446224943	7
0	3891	10308.215670627624	6
0	3896	10312.574885043954	7
0	3897	10315.931563306606	6
0	3901	10317.756129107271	5
0	3904	10318.694195824631	4
0	3908	10329.347259125379	5
0	3910	10338.927189966856	6
0	3921	10390.033763977171	5
0	3925	10393.313484382726	4
0	3930	10394.622402342719	5
0	3931	10407.113877119569	4
0	3938	10424.124143288177	5
0	3941	10427.555913905845	4
0	3946	10432.976240771077	5
0	3948	10433.700846028413	6
0	3949	10440.251285886286	5
0	3958	10455.525464360193	6
0	3960	10464.340261297967	7
0	3962	10465.635061191978	8
0	3963	10465.79278176118	7
0	3967	10480.864572173383	6
0	3971	10485.613216590181	7
0	3976	10488.892562692249	8
0	3980	10497.137550171658	9
0	3981	10503.130053780388	8
0	3988	10514.780551658663	9
0	3992	10520.372284759148	10
0	3993	10525.853368514156	9
0	3997	10525.868763056495	8
0	4001	10529.015950532592	7
0	4011	10566.523369005595	6
0	4015	10566.567979468325	5
0	4024	10591.714780694926	6
0	4025	10593.735274217225	5
0	4030	10597.897811719521	6
0	4032	10626.290178403139	7
0	4035	10644.428383549781	6
0	4039	10647.327131867613	5
0	4043	10648.03832580536	4
0	4049	10689.142188916689	3
0	4052	10702.031371531097	2
0	4058	10702.779666698328	1
0	4061	10704.52141443703	0
0	4068	10725.20593228693	1
0	4075	10751.680370261536	0
0	4079	10756.059142348137	1
0	4081	10767.685802936922	2
0	4085	10775.157897751352	1
0	4093	10794.577636017624	0
0	4098	10799.95458105922	1
0	4099	10800.528736367589	0
0	4106	10816.585633615078	1
0	4108	10819.596180034207	2
0	4109	10823.962169380851	1
0	4112	10839.52148605091	0
0	4126	10874.839346336193	1
0	4127	10881.29255840938	0
0	4156	10942.687700445644	1
0	4158	10949.658042676552	2
0	4159	10963.965383688495	1
0	4167	11000.816491499239	0
0	4174	11024.897333193	1
0	4175	11029.80729030756	0
0	4186	11045.180134015466	1
0	4188	11046.284755706848	2
0	4189	11050.155893692827	1
0	4193	11066.896284639823	2
0	4198	11070.561183934756	3
0	4202	11075.551557688222	4
0	4203	11076.875101991199	3
0	4207	11096.769129522459	2
0	4211	11099.666286787187	3
0	4215	11111.538990790648	2
0	4218	11114.156574836729	1
0	4222	11115.651456329984	2
0	4230	11124.025620799164	3
0	4232	11135.08820058615	4
0	4235	11158.303068192074	3
0	4241	11175.890349107618	2
0	4245	11190.205498814046	1
0	4248	11191.685309932103	0
0	4252	11199.8761629775	1
0	4257	11201.57819657893	2
0	4264	11223.502783024271	3
0	4268	11228.790337767695	4
0	4269	11240.513432124672	3
0	4273	11253.31243305238	2
0	4278	11258.027484099748	3
0	4279	11260.647813297115	2
0	4283	11262.399913612107	3
0	4287	11275.562651445349	2
0	4294	11286.693109090427	3
0	4295	11297.463909551574	2
0	4302	11307.490012722018	3
0	4306	11318.171222974872	4
0	4308	11318.18556733278	5
0	4309	11323.720323984783	4
0	4316	11341.377046422897	5
0	4317	11345.176019471197	4
0	4323	11353.873700952566	3
0	4328	11360.399976695497	4
0	4332	11362.029516822782	5
0	4333	11363.487786517115	4
0	4340	11387.872212378764	5
0	4341	11397.984195593005	4
0	4348	11411.211111374038	5
0	4349	11413.010188967462	4
0	4353	11420.683150315059	3
0	4361	11450.302661041095	2
0	4365	11465.81390495979	1
0	4372	11477.981658345119	2
0	4375	11485.139573993168	1
0	4382	11495.343000111338	2
0	4383	11509.857960715197	1
0	4390	11527.754573123569	2
0	4391	11531.285948593787	1
0	4397	11546.049444926763	0
0	4402	11555.989871159831	1
0	4406	11559.71489619766	2
0	4407	11563.901895634621	1
0	4414	11583.917429080526	2
0	4415	11584.691306261461	1
0	4420	11595.203832062298	2
0	4426	11610.736493153358	3
0	4427	11624.280563387679	2
0	4432	11634.682649153475	3
0	4433	11635.99557034517	2
0	4438	11636.814485557333	3
0	4440	11638.097381407519	4
0	4441	11643.069058022346	3
0	4444	11643.738291456795	2
0	4451	11654.341995702691	3
0	4456	11674.899501697947	4
0	4457	11678.418305240413	3
0	4461	11694.119891296998	4
0	4466	11697.514275894749	5
0	4467	11701.727043712522	4
0	4473	11706.714005175278	3
0	4482	11726.483625479245	4
0	4483	11730.636912724056	3
0	4492	11758.110906406257	4
0	4494	11760.630096111745	5
0	4496	11763.743978019973	6
0	4498	11764.254237994309	7
0	4499	11766.348893240239	6
0	4503	11771.436054670506	5
0	4508	11774.345625421704	6
0	4509	11790.511217038987	5
0	4513	11795.014658316467	6
0	4522	11824.503351642716	7
0	4524	11825.742518522099	8
0	4525	11846.270354976573	7
0	4529	11856.205466508645	6
0	4533	11860.380577185904	5
0	4537	11867.012398676452	6
0	4539	11869.160865197672	7
0	4541	11870.080273578872	8
0	4543	11872.961691471499	9
0	4544	11874.016764998207	8
0	4554	11912.335739539478	9
0	4559	11931.56576604504	8
0	4563	11936.531329448724	7
0	4567	11937.323588390873	6
0	4571	11940.104604959117	7
0	4578	11959.846438596708	8
0	4579	11960.72997662476	7
0	4584	11966.869607168586	8
0	4588	11981.238430067879	9
0	4592	11993.601087518903	10
0	4593	11999.586008324506	9
0	4597	12019.058615866916	8
0	4601	12021.835493031386	7
0	4607	12033.747378913374	6
0	4614	12041.437790062122	7
0	4616	12043.633821194251	8
0	4620	12057.777352732528	9
0	4623	12075.379087822537	8
0	4629	12097.915607728034	7
0	4634	12105.474625597467	8
0	4635	12113.405882751868	7
0	4639	12115.184352902411	6
0	4643	12122.666063694066	7
0	4645	12129.002819694807	8
0	4647	12130.321884519508	9
0	4653	12147.676079385488	8
0	4658	12149.028570825415	9
0	4660	12151.166338763158	10
0	4661	12156.864624372615	9
0	4665	12158.448638474395	10
0	4667	12162.82784184224	11
0	4671	12174.477653985463	10
0	4674	12181.491803229117	9
0	4680	12187.073147131839	8
0	4687	12209.310395546737	9
0	4694	12240.104438409241	10
0	4697	12244.12875265095	9
0	4701	12252.904022713507	8
0	4705	12259.650995696607	7
0	4708	12262.473500987292	6
0	4715	12277.131226722217	7
0	4717	12280.446235437436	8
0	4719	12283.472917189009	9
0	4726	12296.544916344872	10
0	4727	12309.28721540472	9
0	4731	12322.687883399607	8
0	4738	12332.040173095048	9
0	4739	12332.844085198742	8
0	4745	12339.539919945752	7
0	4749	12344.47718089489	8
0	4758	12376.873868375285	9
0	4760	12382.568060541218	10
0	4762	12391.301574032277	11
0	4763	12393.648715821284	10
0	4767	12396.178434207727	9
0	4771	12400.004640087623	8
0	4775	12413.783737505203	9
0	4776	12413.794864298725	8
0	4780	12414.401717679662	9
0	4782	12417.088518834493	10
0	4784	12419.469820663073	11
0	4791	12442.548007024761	10
0	4799	12470.950088529742	9
0	4803	12483.226670850863	8
0	4810	12491.779280522513	9
0	4811	12497.578450144837	8
0	4814	12508.330064480668	7
0	4821	12523.776857204495	8
0	4827	12537.728219804958	7
0	4831	12547.189244864779	6
0	4839	12584.18203284985	5
0	4844	12588.625908733327	6
0	4849	12604.348971185456	5
0	4853	12610.899670704782	4
0	4858	12619.826439793798	5
0	4860	12621.737293416804	6
0	4862	12637.973101259661	7
0	4863	12642.530080640119	6
0	4867	12651.894619743678	7
0	4873	12655.60097952689	6
0	4879	12671.87612585786	5
0	4883	12676.186092963375	4
0	4887	12681.335505325091	5
0	4889	12683.154915082495	6
0	4895	12723.648964569046	5
0	4899	12735.548131532586	4
0	4907	12750.383942569028	3
0	4911	12763.251222506387	2
0	4915	12764.150621805406	3
0	4920	12769.016515434602	4
0	4926	12793.215378285887	5
0	4927	12805.170563594289	4
0	4932	12813.871697613486	5
0	4933	12819.305017412277	4
0	4938	12826.990361383379	5
0	4939	12831.941090438943	4
0	4942	12837.639679645073	3
0	4949	12856.506492902075	4
0	4953	12876.711068428535	3
0	4960	12889.189144026314	4
0	4961	12889.357582734174	3
0	4968	12901.378918460161	4
0	4972	12902.611276474763	5
0	4973	12905.981090068321	4
0	4977	12924.841829417817	3
0	4987	12959.588616077968	2
0	4991	12965.15812152716	1
0	4995	12971.680391390102	0
0	4999	12979.549551036184	1
0	5001	12980.9708120331	2
0	5006	12988.353218997351	3
0	5010	12997.216058134147	4
0	5011	13010.635999294902	3
0	5015	13011.679409120914	2
0	5019	13019.148657520916	3
0	5023	13022.245467852934	2
0	5027	13026.792377481539	3
0	5031	13034.098643957106	2
0	5035	13042.628018379698	3
0	5044	13069.588345893375	4
0	5045	13070.668972663853	3
0	5049	13089.391217216069	2
0	5056	13100.216033085874	3
0	5057	13109.141752660917	2
0	5063	13120.332403788862	1
0	5069	13125.382403265212	0
0	5098	13207.611139350601	1
0	5099	13213.085371335716	0
0	5108	13232.626681728551	1
0	5110	13233.193566303837	2
0	5113	13269.811464673259	1
0	5117	13274.064790008532	0
0	5135	13315.821579494922	1
0	5141	13332.755783742244	0
0	5146	13341.362320598077	1
0	5147	13349.92363339174	0
0	5151	13351.022196843134	1
0	5156	13361.144254472424	2
0	5157	13365.649967348552	1
0	5165	13385.166807938011	0
0	5170	13403.81245804902	1
0	5171	13405.435327064214	0
0	5244	13624.269594862327	1
0	5245	13631.270296196737	0
0	5252	13638.94835283616	1
0	5254	13641.284593166702	2
0	5255	13662.407928067331	1
0	5261	13671.717468579848	0
0	5332	13968.582315269236	1
0	5333	13980.098088781487	0
0	5340	13987.832836548087	1
0	5341	13989.980551712995	0
0	5346	13994.443340022047	1
0	5349	14002.24489616263	0
0	5356	14025.415051317867	1
0	5358	14030.422524665082	2
0	5359	14045.232890873011	1
0	5366	14047.453510852887	2
0	5367	14049.592942987315	1
0	5371	14056.526600054494	0
0	5378	14069.786621259803	1
0	5380	14078.612770583088	2
0	5383	14082.982236344222	1
0	5388	14086.895661616748	2
0	5393	14124.529773218941	1
0	5397	14132.030909037237	0
0	5428	14200.993824763569	1
0	5430	14217.507534734136	2
0	5431	14224.383301229319	1
0	5437	14228.774936564573	0
0	5468	14314.255658421818	1
0	5470	14314.329991848647	2
0	5472	14324.684363394389	3
0	5475	14327.12754952966	2
0	5479	14347.331520561308	1
0	5486	14361.980986176631	2
0	5487	14370.18414552172	1
0	5492	14380.731357092583	2
0	5495	14406.337198698326	1
0	5499	14407.597848215651	0
0	5506	14413.74169557607	1
0	5507	14421.375822993927	0
0	5522	14463.219402477813	1
0	5524	14466.921335891658	2
0	5528	14469.244891234175	3
0	5530	14479.357811754807	4
0	5534	14487.121053868051	5
0	5535	14490.255217410915	4
0	5539	14498.81309488656	3
0	5544	14499.194432623652	4
0	5545	14505.227828484507	3
0	5548	14505.463527056271	2
0	5552	14512.802153084971	3
0	5554	14516.120576983637	4
0	5556	14517.797961830871	5
0	5565	14558.073180741309	4
0	5569	14568.22982539046	3
0	5575	14582.191756357689	2
0	5581	14588.823056282873	1
0	5585	14592.730338510523	2
0	5587	14599.037635629668	3
0	5589	14602.941812089221	4
0	5596	14622.093600013365	5
0	5598	14636.457560310613	6
0	5601	14643.800477809146	5
0	5605	14645.990366842177	4
0	5609	14653.440982581991	3
0	5612	14654.80408088264	2
0	5616	14660.765451346771	3
0	5624	14684.684908975711	4
0	5629	14707.919879350089	3
0	5633	14712.73252458681	2
0	5638	14728.315554043127	3
0	5639	14734.190738941105	2
0	5643	14734.2874675953	3
0	5647	14745.048088362615	2
0	5658	14771.167361477742	3
0	5659	14787.94133908931	2
0	5664	14792.51884732404	3
0	5665	14797.00548978758	2
0	5669	14799.098908618246	1
0	5672	14808.620043514438	0
0	5679	14821.015414855175	1
0	5681	14830.685506880069	2
0	5685	14848.083723541619	1
0	5691	14860.295471785389	0
0	5698	14867.90390268942	1
0	5699	14876.84786665085	0
0	5711	14901.948181398877	1
0	5712	14902.650469306914	0
0	5716	14904.009270628063	1
0	5726	14940.662987087197	2
0	5727	14948.157551037466	1
0	5731	14953.198207017333	0
0	5756	15012.237147461254	1
0	5764	15031.161403410056	2
0	5766	15039.047599795813	3
0	5767	15040.930650205031	2
0	5776	15055.086695035717	3
0	5777	15059.186083718626	2
0	5781	15061.50644989678	1
0	5788	15071.472167071495	2
0	5790	15076.828811754138	3
0	5793	15096.522488813224	2
0	5797	15099.44766725373	1
0	5800	15105.830923770061	0
0	5823	15148.342620980233	1
0	5830	15186.63599630896	2
0	5831	15190.127240420805	1
0	5835	15202.387772490395	0
0	5910	15434.756550182634	1
0	5911	15439.41593082201	0
0	5948	15525.843442880727	1
0	5950	15538.950508105978	2
0	5952	15540.670302816348	3
0	5955	15550.629213206475	2
0	5960	15552.794647463161	3
0	5962	15557.922013625103	4
0	5964	15570.030794421453	5
0	5965	15573.561681708227	4
0	5972	15582.142031895593	5
0	5975	15594.533213656331	4
0	5980	15596.776702057448	5
0	5984	15609.237735426389	6
0	5985	15617.383938102325	5
0	5990	15617.825331557283	6
0	5991	15627.788246483341	5
0	5996	15628.944623114779	6
0	5998	15632.097385260349	7
0	6003	15656.28931118489	6
0	6007	15683.20802052216	5
0	6012	15685.879028146863	6
0	6014	15688.093954886881	7
0	6015	15688.212630368427	6
0	6022	15690.519517990013	7
0	6024	15693.031243085027	8
0	6026	15693.696958404162	9
0	6028	15696.7345846995	10
0	6029	15703.828447884306	9
0	6033	15706.91271803406	10
0	6038	15712.781037809671	11
0	6040	15720.198036754166	12
0	6043	15733.553337927187	11
0	6050	15754.133462098355	12
0	6053	15765.679030870901	11
0	6057	15765.682896210755	10
0	6061	15766.365877757557	9
0	6068	15797.847223764106	10
0	6071	15802.827763077512	9
0	6078	15823.226619469934	10
0	6080	15830.283838592035	11
0	6083	15842.395773915914	10
0	6088	15844.646950627265	11
0	6089	15853.697995049009	10
0	6093	15858.710956078192	9
0	6103	15888.705730821193	8
0	6107	15905.84109665505	7
0	6112	15915.789967200578	8
0	6115	15920.621015780841	7
0	6120	15922.504315502562	8
0	6124	15940.096062240351	9
0	6127	15952.611577474017	8
0	6132	15957.379991366384	9
0	6134	15960.276622880544	10
0	6136	15963.056408119821	11
0	6137	15972.099326393047	10
0	6142	15972.631635160233	11
0	6143	15973.870898390525	10
0	6147	15976.750731858701	11
0	6151	15984.194791435656	10
0	6160	16006.42993902437	11
0	6161	16013.615582638406	10
0	6170	16043.450081263742	11
0	6171	16049.850474375284	10
0	6175	16051.515974346811	9
0	6179	16053.009876194848	8
0	6186	16063.624447412106	9
0	6188	16063.926238158236	10
0	6190	16083.306021279836	11
0	6196	16095.533262216992	12
0	6197	16107.544446107161	11
0	6201	16123.002063932729	10
0	6205	16127.203038804314	9
0	6211	16131.19593603469	8
0	6218	16161.966902427016	9
0	6220	16162.091357221915	10
0	6222	16167.270214917776	11
0	6224	16167.456771220424	12
0	6229	16185.487004363588	11
0	6233	16190.726197296878	10
0	6237	16196.126216766757	9
0	6246	16205.753488997462	10
0	6248	16208.455399009698	11
0	6250	16211.538387150885	12
0	6251	16221.125655037148	11
0	6258	16253.420659226531	12
0	6261	16256.470502395365	11
0	6265	16261.054221510596	10
0	6270	16269.072587004868	11
0	6273	16285.352085284162	10
0	6277	16297.381210667212	9
0	6284	16299.435775315673	10
0	6287	16321.012432554543	9
0	6292	16330.795695057907	10
0	6293	16330.950581005819	9
0	6297	16338.071532997954	10
0	6303	16358.360763681075	9
0	6307	16366.832495380558	8
0	6311	16368.331206784406	9
0	6316	16384.46944605105	10
0	6319	16399.856072045513	9
0	6325	16420.377034391513	8
0	6329	16429.52594670283	7
0	6335	16443.276213853435	6
0	6342	16463.088542567891	7
0	6344	16471.466430140651	8
0	6348	16492.026487173178	9
0	6349	16494.078728108269	8
0	6353	16497.614170634917	7
0	6356	16497.733766902244	6
0	6360	16501.445402581768	7
0	6368	16523.713931299827	8
0	6369	16526.265765430076	7
0	6376	16545.310052149642	8
0	6380	16548.535943344111	9
0	6381	16557.63243804716	8
0	6386	16574.081020310134	9
0	6387	16576.509170099392	8
0	6391	16577.327058216967	9
0	6397	16587.690532325055	8
0	6401	16596.621301734871	7
0	6408	16610.702163887446	8
0	6410	16615.669851900482	9
0	6413	16623.980341430207	8
0	6417	16628.101968668604	7
0	6424	16632.890946751009	8
0	6425	16635.68218547415	7
0	6428	16644.570411546651	6
0	6432	16650.441891396962	7
0	6434	16651.241890943807	8
0	6442	16664.589303374177	9
0	6444	16676.981790075902	10
0	6447	16693.002176036942	9
0	6454	16699.519224006981	10
0	6455	16701.441788859388	9
0	6459	16712.929490126772	8
0	6462	16718.662521216012	7
0	6472	16746.397955098633	8
0	6474	16754.490569594657	9
0	6480	16760.729755841322	10
0	6482	16762.736256173721	11
0	6484	16764.013999799201	12
0	6485	16776.583185518666	11
0	6489	16783.217443075704	10
0	6494	16783.893741565265	11
0	6496	16783.92565837688	12
0	6497	16787.119393320169	11
0	6508	16804.562160230981	12
0	6509	16817.682282251434	11
0	6516	16837.270354223845	12
0	6518	16839.251034445951	13
0	6519	16848.468534258666	12
0	6523	16854.702095708372	11
0	6527	16855.961815010287	10
0	6535	16896.006325115907	9
0	6542	16916.379949961635	10
0	6543	16920.533669127639	9
0	6550	16921.692386781079	10
0	6552	16923.428936911848	11
0	6553	16926.785937264416	10
0	6557	16947.045696136686	9
0	6561	16949.011692798333	10
0	6568	16954.841582631106	11
0	6571	16983.242462983938	10
0	6575	16988.758211088108	9
0	6579	16996.010866002502	8
0	6583	17018.19509554649	9
0	6588	17028.200385695018	10
0	6592	17032.447241436481	11
0	6593	17039.318102130891	10
0	6600	17049.241348100698	11
0	6601	17050.062651170966	10
0	6605	17058.265817056647	9
0	6608	17066.541052416607	8
0	6615	17078.657614686623	9
0	6620	17089.165485597367	10
0	6623	17104.984075589795	9
0	6627	17111.32959548858	8
0	6634	17117.900144105464	9
0	6635	17131.104617201753	8
0	6639	17136.006419371386	9
0	6641	17136.061655699505	10
0	6645	17150.427866707546	9
0	6652	17159.65081273975	10
0	6657	17187.986861385322	9
0	6661	17197.086707880813	8
0	6665	17199.324511236088	7
0	6669	17200.26057612348	8
0	6671	17207.260445741977	9
0	6675	17211.071879461741	8
0	6683	17233.758561759416	7
0	6688	17247.410545445962	8
0	6689	17247.986565598833	7
0	6697	17275.367854794039	6
0	6703	17293.099683179184	5
0	6710	17306.655240149073	6
0	6711	17310.705220871479	5
0	6715	17318.470307803176	4
0	6721	17338.971080964249	3
0	6724	17340.717686122157	2
0	6734	17354.056086209897	3
0	6740	17364.759751417026	4
0	6742	17367.845603484947	5
0	6744	17376.62748347854	6
0	6745	17383.456738918181	5
0	6750	17385.383772915683	6
0	6751	17389.101810800797	5
0	6756	17390.798689259037	6
0	6758	17397.253479981495	7
0	6759	17399.624593153771	6
0	6766	17412.605851201245	7
0	6767	17414.821853704432	6
0	6771	17415.57193767919	7
0	6776	17423.460184061419	8
0	6778	17444.293030101576	9
0	6784	17454.269618917344	10
0	6785	17456.238252479399	9
0	6790	17463.541249028642	10
0	6791	17469.383313311323	9
0	6795	17471.46681287051	8
0	6803	17499.310652063752	7
0	6810	17511.320039335096	8
0	6811	17534.477207313155	7
0	6816	17536.165649250593	8
0	6819	17539.861316049288	7
0	6823	17551.872574396269	6
0	6826	17569.545744009311	5
0	6835	17583.086962701933	4
0	6839	17587.164999919159	5
0	6844	17608.889652905878	6
0	6848	17609.828348104336	7
0	6850	17623.288235443818	8
0	6851	17623.569309407403	7
0	6855	17625.499190249341	6
0	6862	17635.756728325282	7
0	6866	17643.551713484562	8
0	6867	17648.93537249136	7
0	6873	17673.293078162286	6
0	6880	17681.194940321722	7
0	6881	17681.287640710031	6
0	6885	17693.835182343532	5
0	6893	17720.9395444178	4
0	6900	17748.661996113439	5
0	6904	17755.174808351734	6
0	6906	17759.033276009997	7
0	6907	17762.751153012306	6
0	6912	17766.699608229277	7
0	6914	17770.658592389632	8
0	6915	17772.181141255384	7
0	6921	17786.696668975803	6
0	6925	17795.398453597999	5
0	6929	17801.779945101793	6
0	6935	17835.515363240763	5
0	6939	17842.56419306091	4
0	6945	17856.297934639994	3
0	6949	17864.429097320871	4
0	6953	17877.196513826444	3
0	6957	17883.373421394958	4
0	6962	17895.527484154963	5
0	6967	17903.927469837736	4
0	6971	17905.836770241574	3
0	6975	17929.598430927218	2
0	6982	17934.783654324701	3
0	6984	17937.2655923472	4
0	6985	17946.874354725468	3
0	6989	17952.74740198158	4
0	6995	17969.119012558599	3
0	7002	17983.91643423965	4
0	7003	17987.852944390609	3
0	7010	18006.748538960576	2
0	7016	18029.225950174992	1
0	7022	18055.226770799124	0
1	0	0	0
1	112	392.671346773211	1
1	114	393.323171963506	0
1	150	482.374861853129	1
1	158	502.617185951953	0
1	178	546.591222040485	1
1	181	549.83143036799	2
1	183	561.477760492665	1
1	186	568.784109203454	0
1	190	585.924656800043	1
1	192	588.387213225037	0
1	202	604.993279190953	1
1	204	616.816260616814	2
1	205	619.353383643709	1
1	208	626.333054098749	0
1	215	651.940350933635	1
1	216	653.094083922119	0
1	236	726.487904364916	1
1	243	741.539909489739	0
1	274	827.81356106437	1
1	280	833.77075251947	0
1	342	975.330499886341	1
1	344	986.788741366456	0
1	350	999.799479994991	1
1	353	1005.542069425209	2
1	355	1023.007157816791	1
1	358	1025.020090154684	0
1	362	1028.923146557425	1
1	363	1037.414782310232	0
1	434	1221.568364443951	1
1	436	1225.059642920187	0
1	452	1276.54818958556	1
1	455	1287.164028796149	2
1	459	1291.643405308886	1
1	462	1300.147610428658	0
1	468	1325.106497115566	1
1	470	1325.649692815561	0
1	482	1357.47787586063	1
1	483	1360.348539965166	0
1	527	1488.781073768944	1
1	528	1492.923678850761	0
1	566	1583.250375157024	1
1	570	1596.646150644352	0
1	584	1627.709589737853	1
1	588	1639.89290051037	0
1	618	1701.336240832149	1
1	620	1702.8366867319	0
1	642	1767.513010304658	1
1	644	1767.704491272451	0
1	680	1834.540006887185	1
1	686	1863.674987759455	0
1	759	2056.103371500853	1
1	763	2068.43817832961	0
1	834	2233.794747898113	1
1	836	2239.898412144435	0
1	848	2273.195923514541	1
1	852	2277.318973811523	0
1	880	2356.936699431725	1
1	885	2373.939989070758	2
1	887	2378.110287093487	1
1	890	2379.707901525266	0
1	896	2407.090355840038	1
1	898	2412.771661544182	0
1	910	2420.122887675554	1
1	912	2427.252419626888	0
1	916	2434.578979815606	1
1	922	2468.978446378506	0
1	940	2506.963101185004	1
1	945	2507.844961411046	2
1	947	2514.907126325298	1
1	952	2548.460445802537	0
1	964	2571.728848096001	1
1	967	2574.662684262929	2
1	971	2580.010084071179	1
1	977	2591.88545814859	2
1	979	2599.302673699972	1
1	982	2618.386236041964	0
1	1034	2732.450531098008	1
1	1038	2748.81310907039	0
1	1066	2803.277139513528	1
1	1067	2818.615864239276	0
1	1092	2874.391424850418	1
1	1094	2878.613683746713	0
1	1167	3055.298840545882	1
1	1168	3065.59235649008	0
1	1175	3074.670971185145	1
1	1176	3079.870784045493	0
1	1220	3221.844826280263	1
1	1221	3233.299955065454	0
1	1292	3531.474457794308	1
1	1295	3537.984872195712	2
1	1299	3539.786222948236	1
1	1306	3544.9756561864	0
1	1312	3559.830753050379	1
1	1320	3567.21819673142	0
1	1400	3772.800426852248	1
1	1404	3791.368590340546	0
1	1416	3829.681142222312	1
1	1418	3829.832150557403	0
1	1424	3844.419615579361	1
1	1426	3855.8904870502	0
1	1450	3927.491459972631	1
1	1452	3933.851320844965	2
1	1453	3949.242610869597	1
1	1456	3958.55325510652	0
1	1468	3989.86848799101	1
1	1469	3991.557119857908	0
1	1543	4231.409636567027	1
1	1544	4238.286075282748	0
1	1572	4330.924899922465	1
1	1573	4350.815907082917	0
1	1644	4616.967822918312	1
1	1648	4624.100885921719	0
1	1708	4833.37433307378	1
1	1710	4833.394197139077	0
1	1743	4904.190810975641	1
1	1745	4916.538180351275	2
1	1746	4917.760977611392	1
1	1749	4938.599371220033	0
1	1815	5165.295483435659	1
1	1816	5165.941236083327	0
1	1858	5281.983385665431	1
1	1859	5290.942527454549	0
1	1918	5444.570318767537	1
1	1924	5459.036835056123	0
1	1950	5548.330438840604	1
1	1952	5549.752429070278	0
1	1960	5557.521425818324	1
1	1962	5565.142491569789	0
1	1974	5589.13686940585	1
1	1977	5590.089386897203	2
1	1981	5600.966503121491	1
1	1984	5617.84907451948	0
1	1994	5638.242935855362	1
1	1995	5645.931327902546	0
1	1999	5647.916669487564	1
1	2004	5661.855471930533	2
1	2006	5662.166744240362	3
1	2007	5674.834297220974	2
1	2013	5688.795404777527	1
1	2019	5707.315056701936	0
1	2028	5722.368898831846	1
1	2030	5723.637654356792	0
1	2092	5865.34307566442	1
1	2094	5865.763250540242	0
1	2098	5877.407024592386	1
1	2100	5885.450990022378	0
1	2110	5923.664425292684	1
1	2117	5935.85177631051	2
1	2119	5941.164179713871	1
1	2122	5942.826119508947	0
1	2130	5954.575326937394	1
1	2133	5979.789287758729	2
1	2135	5980.585346224123	1
1	2138	5983.451671971257	0
1	2144	5991.210037282344	1
1	2146	6005.945306867828	0
1	2152	6010.409712753806	1
1	2155	6012.262345326976	2
1	2157	6020.583140352461	1
1	2161	6039.04818250132	2
1	2163	6042.10268644485	1
1	2166	6045.567958417855	0
1	2186	6086.18756571433	1
1	2190	6091.899562764069	0
1	2196	6117.676592144627	1
1	2198	6118.165954666083	0
1	2207	6146.680509161544	1
1	2209	6152.033777624521	2
1	2213	6163.753197829435	1
1	2216	6168.834815549462	0
1	2284	6372.387854161858	1
1	2286	6377.345413933235	0
1	2308	6433.06330208328	1
1	2311	6436.677166448733	2
1	2317	6469.463229532219	1
1	2320	6470.396820320187	0
1	2332	6505.66791088121	1
1	2334	6505.985994667829	0
1	2342	6516.75844143204	1
1	2346	6525.431449136063	0
1	2388	6601.882776608874	1
1	2392	6614.753066389315	0
1	2492	6870.236240075104	1
1	2496	6880.92221110689	0
1	2500	6904.78152867106	1
1	2502	6905.417505725414	0
1	2514	6918.266109775995	1
1	2519	6940.267348943898	2
1	2523	6948.737107786243	1
1	2526	6950.523908655627	0
1	2542	6987.296085035961	1
1	2545	6990.119734588073	2
1	2547	6992.897609596342	1
1	2559	6999.115079628951	2
1	2563	7015.80610580988	1
1	2567	7023.731714564661	2
1	2569	7033.334894224486	1
1	2574	7043.098764802266	0
1	2578	7045.30606311043	1
1	2580	7048.04959018669	0
1	2584	7064.002341553521	1
1	2587	7065.063554447636	2
1	2589	7066.508893976628	1
1	2593	7076.24749630605	2
1	2595	7079.872825791585	1
1	2598	7093.857319205176	0
1	2626	7136.551960965541	1
1	2630	7151.520050959183	0
1	2636	7155.70312300498	1
1	2638	7167.051345859024	0
1	2648	7196.929135440441	1
1	2650	7205.596862462525	0
1	2656	7216.595939390432	1
1	2658	7221.878313573768	0
1	2664	7232.093923042244	1
1	2666	7238.463307907692	0
1	2722	7375.199731632486	1
1	2726	7400.309488903922	0
1	2730	7400.404174012812	1
1	2732	7417.625795084124	0
1	2774	7518.275794275713	1
1	2776	7518.889465789484	0
1	2816	7613.702171853578	1
1	2818	7623.034221369496	0
1	2838	7679.325751581798	1
1	2841	7691.358074408399	2
1	2843	7699.240982600584	1
1	2846	7702.56079530082	0
1	2868	7756.412690612415	1
1	2870	7761.491240339919	0
1	2874	7761.810681872831	1
1	2875	7767.222480024926	0
1	2924	7885.476546018354	1
1	2926	7895.19338760516	0
1	2996	8064.443029932737	1
1	2998	8067.889515619721	0
1	3002	8086.236734814117	1
1	3003	8087.660596252675	0
1	3052	8204.138737900221	1
1	3053	8225.832150252574	0
1	3102	8379.836352862523	1
1	3104	8382.735359006382	0
1	3172	8553.543186134793	1
1	3174	8566.232552308188	0
1	3180	8579.506943085539	1
1	3182	8584.150942013191	0
1	3188	8593.377925039098	1
1	3190	8599.573937158769	0
1	3198	8614.110150836168	1
1	3200	8615.680044550218	0
1	3292	8811.044042986681	1
1	3296	8820.326241287454	0
1	3316	8884.150120709127	1
1	3319	8891.099018119	2
1	3323	8908.260946909775	1
1	3328	8917.499972718011	0
1	3332	8928.675139149177	1
1	3334	8929.91533782732	0
1	3342	8943.84444729006	1
1	3344	8946.250501674661	0
1	3348	8951.631546462526	1
1	3350	8952.784596528095	0
1	3380	9029.401452372935	1
1	3383	9039.820202871886	2
1	3385	9043.713628657198	1
1	3390	9058.038645332158	0
1	3414	9112.982405454885	1
1	3417	9112.998744596634	2
1	3421	9121.703823074032	1
1	3424	9132.161791980165	0
1	3448	9199.75305015376	1
1	3450	9214.044150373228	0
1	3472	9268.820586832404	1
1	3475	9278.982580795152	2
1	3477	9280.871362371969	1
1	3480	9291.166225532005	0
1	3502	9370.776503805683	1
1	3505	9373.00626045543	2
1	3507	9382.553972931119	1
1	3510	9389.52433018704	0
1	3530	9463.308355263479	1
1	3531	9473.783356000217	0
1	3540	9483.447456380605	1
1	3544	9491.723069257837	0
1	3580	9542.40906640255	1
1	3584	9570.628104583031	0
1	3588	9582.581390059328	1
1	3590	9584.911553684991	0
1	3594	9603.059090208334	1
1	3596	9606.392829476661	0
1	3600	9607.578246299503	1
1	3604	9618.857078723965	0
1	3642	9706.680000480907	1
1	3644	9715.695194478925	0
1	3668	9764.448034980399	1
1	3670	9767.821781335528	0
1	3676	9771.221980609981	1
1	3678	9776.261129864186	0
1	3702	9833.067143761078	1
1	3705	9857.685774093948	2
1	3707	9863.230928031767	1
1	3710	9865.863712178384	0
1	3732	9927.824095928468	1
1	3736	9943.772920460156	0
1	3742	9952.754130565619	1
1	3746	9960.680379453641	0
1	3770	10015.458784118471	1
1	3773	10019.163897475187	2
1	3775	10020.473684284634	1
1	3778	10025.376040844296	0
1	3786	10039.10955497529	1
1	3788	10057.303038525248	0
1	3792	10062.640509284662	1
1	3794	10062.670764856934	0
1	3800	10086.094788475781	1
1	3802	10087.537518583871	0
1	3850	10177.344984389864	1
1	3852	10179.796958063414	0
1	3874	10238.977576560743	1
1	3877	10248.556762956699	2
1	3879	10256.259093533363	1
1	3882	10268.773333632552	0
1	3902	10317.756129107271	1
1	3905	10318.694195824631	2
1	3911	10354.388475058953	1
1	3914	10357.877667916717	0
1	3932	10407.113877119569	1
1	3934	10421.315307733695	0
1	3950	10440.251285886286	1
1	3952	10445.090905668835	0
1	3968	10480.864572173383	1
1	3972	10486.022021814743	0
1	4002	10529.015950532592	1
1	4004	10546.857827075566	0
1	4044	10648.03832580536	1
1	4046	10687.482100705992	0
1	4050	10689.142188916689	1
1	4053	10702.031371531097	2
1	4055	10702.554643535144	1
1	4059	10702.779666698328	2
1	4062	10704.52141443703	3
1	4064	10717.684953884635	2
1	4069	10741.912480163922	1
1	4072	10746.875947711692	0
1	4076	10751.680370261536	1
1	4082	10771.834715090878	0
1	4086	10775.157897751352	1
1	4088	10780.636872369481	0
1	4100	10800.528736367589	1
1	4102	10807.382807961978	0
1	4110	10823.962169380851	1
1	4113	10839.52148605091	2
1	4115	10841.644910502053	1
1	4118	10845.344521401745	0
1	4135	10889.572894609133	1
1	4136	10904.214922897503	0
1	4140	10911.657635241019	1
1	4147	10934.125447687815	0
1	4190	11050.155893692827	1
1	4194	11068.638187913063	0
1	4208	11096.769129522459	1
1	4212	11102.129465770311	0
1	4216	11111.538990790648	1
1	4219	11114.156574836729	2
1	4223	11123.25132251662	1
1	4226	11123.39531127045	0
1	4246	11190.205498814046	1
1	4249	11191.685309932103	2
1	4253	11200.492815234426	1
1	4258	11202.889971568602	0
1	4280	11260.647813297115	1
1	4284	11271.433561285251	0
1	4288	11275.562651445349	1
1	4290	11282.713507705884	0
1	4296	11297.463909551574	1
1	4298	11305.416051766622	0
1	4354	11420.683150315059	1
1	4356	11428.493493173373	0
1	4366	11465.81390495979	1
1	4368	11469.212770835227	0
1	4442	11643.069058022346	1
1	4445	11643.738291456795	2
1	4447	11645.407341057538	1
1	4452	11671.976198535708	0
1	4458	11678.418305240413	1
1	4462	11696.447181494884	0
1	4468	11701.727043712522	1
1	4470	11703.187076294523	0
1	4474	11706.714005175278	1
1	4476	11714.322107534007	0
1	4510	11790.511217038987	1
1	4514	11796.506672554639	0
1	4534	11860.380577185904	1
1	4545	11874.016764998207	2
1	4547	11880.934352240867	1
1	4550	11900.453508438489	0
1	4568	11937.323588390873	1
1	4572	11956.187907569348	0
1	4602	12021.835493031386	1
1	4604	12027.844766478997	0
1	4608	12033.747378913374	1
1	4610	12040.936946554769	0
1	4640	12115.184352902411	1
1	4648	12134.422541405096	0
1	4662	12156.864624372615	1
1	4668	12163.246265429326	0
1	4672	12174.477653985463	1
1	4675	12181.491803229117	2
1	4677	12184.928255557459	1
1	4681	12187.073147131839	2
1	4683	12191.953543561221	1
1	4688	12211.210070261254	0
1	4706	12259.650995696607	1
1	4709	12262.473500987292	2
1	4711	12268.133304264438	1
1	4720	12287.595250507269	0
1	4732	12322.687883399607	1
1	4734	12324.595725733091	0
1	4740	12332.844085198742	1
1	4742	12335.922821278378	0
1	4746	12339.539919945752	1
1	4750	12348.962625238305	0
1	4772	12400.004640087623	1
1	4777	12413.794864298725	2
1	4785	12422.083734412787	1
1	4788	12436.739734762783	0
1	4792	12442.548007024761	1
1	4794	12453.820705221245	0
1	4804	12483.226670850863	1
1	4806	12491.171866956006	0
1	4812	12497.578450144837	1
1	4815	12508.330064480668	2
1	4817	12512.433043952558	1
1	4822	12532.643200800123	0
1	4832	12547.189244864779	1
1	4834	12560.522142648755	0
1	4864	12642.530080640119	1
1	4868	12653.489413117767	0
1	4884	12676.186092963375	1
1	4890	12690.199187101596	0
1	4900	12735.548131532586	1
1	4902	12736.320836202021	0
1	4912	12763.251222506387	1
1	4916	12764.935926870545	0
1	4940	12831.941090438943	1
1	4943	12837.639679645073	2
1	4945	12840.313886329441	1
1	4950	12856.820800877484	0
1	4954	12876.711068428535	1
1	4956	12881.937554466851	0
1	4962	12889.357582734174	1
1	4964	12895.348042847044	0
1	4978	12924.841829417817	1
1	4980	12926.854723171622	0
1	4996	12971.680391390102	1
1	5002	12982.732150930779	0
1	5016	13011.679409120914	1
1	5020	13019.680247041423	0
1	5024	13022.245467852934	1
1	5028	13027.329565392173	0
1	5032	13034.098643957106	1
1	5036	13045.095158566811	0
1	5074	13141.698735328474	1
1	5075	13157.554285430729	0
1	5100	13213.085371335716	1
1	5102	13216.477281748004	0
1	5122	13275.173004115279	1
1	5127	13292.070619770707	2
1	5131	13297.668085999384	1
1	5136	13325.670277480798	0
1	5148	13349.92363339174	1
1	5152	13358.7673024074	0
1	5158	13365.649967348552	1
1	5160	13369.035811470782	0
1	5172	13405.435327064214	1
1	5175	13412.007171589041	2
1	5176	13415.720865046212	1
1	5179	13419.713673430062	0
1	5266	13680.755485838661	1
1	5268	13683.484269389654	2
1	5269	13702.079061500803	1
1	5275	13715.540882746111	0
1	5372	14056.526600054494	1
1	5374	14067.250986264154	0
1	5402	14135.791447894426	1
1	5406	14143.45232558753	0
1	5410	14162.180639890931	1
1	5411	14166.845942347028	0
1	5500	14407.597848215651	1
1	5502	14408.217676317634	0
1	5508	14421.375822993927	1
1	5510	14438.156506313235	0
1	5514	14438.6880749451	1
1	5515	14445.810443628786	0
1	5546	14505.227828484507	1
1	5549	14505.463527056271	2
1	5557	14518.259051371831	1
1	5560	14524.422445403747	0
1	5570	14568.22982539046	1
1	5572	14573.368973815167	0
1	5576	14582.191756357689	1
1	5578	14585.978162993321	0
1	5582	14588.823056282873	1
1	5590	14614.699216945426	0
1	5610	14653.440982581991	1
1	5613	14654.80408088264	2
1	5617	14674.779595807669	1
1	5620	14683.067480296028	0
1	5640	14734.190738941105	1
1	5644	14736.67882073792	0
1	5648	14745.048088362615	1
1	5650	14745.161002070424	0
1	5670	14799.098908618246	1
1	5673	14808.620043514438	2
1	5675	14814.890731809344	1
1	5682	14831.014775514667	0
1	5686	14848.083723541619	1
1	5688	14856.218017320859	0
1	5692	14860.295471785389	1
1	5694	14863.676356739376	0
1	5700	14876.84786665085	1
1	5703	14877.302649869184	2
1	5707	14896.69835155411	1
1	5713	14902.650469306914	2
1	5717	14908.177969550316	1
1	5720	14930.513626504969	0
1	5732	14953.198207017333	1
1	5735	14971.532029143656	2
1	5736	14978.386993614111	1
1	5740	14979.210114189755	2
1	5744	14991.825699083303	1
1	5748	14996.441595668589	2
1	5757	15017.568865491943	1
1	5760	15019.694805010148	0
1	5768	15040.930650205031	1
1	5770	15041.315383846764	0
1	5782	15061.50644989678	1
1	5784	15069.304403066672	0
1	5798	15099.44766725373	1
1	5801	15105.830923770061	2
1	5803	15111.844956009696	1
1	5806	15121.262812251111	0
1	5818	15141.598698865242	1
1	5824	15165.267688167291	0
1	5836	15202.387772490395	1
1	5838	15210.67304576784	0
1	5847	15222.46379103783	1
1	5848	15228.796141474119	0
1	5892	15382.625029920153	1
1	5896	15391.136054040213	0
1	5930	15498.968173573656	1
1	5931	15503.459694281909	0
1	6016	15688.212630368427	1
1	6018	15689.883046258437	0
1	6030	15703.828447884306	1
1	6034	15708.846436211382	0
1	6062	15766.365877757557	1
1	6064	15790.801879325403	0
1	6094	15858.710956078192	1
1	6096	15869.601322874436	0
1	6144	15973.870898390525	1
1	6148	15981.751607902215	0
1	6152	15984.194791435656	1
1	6154	15989.869034878967	0
1	6180	16053.009876194848	1
1	6182	16060.729502452465	0
1	6206	16127.203038804314	1
1	6208	16128.964918977111	0
1	6212	16131.19593603469	1
1	6214	16140.337095940558	0
1	6238	16196.126216766757	1
1	6240	16200.65054530661	0
1	6278	16297.381210667212	1
1	6280	16299.282795050839	0
1	6294	16330.950581005819	1
1	6298	16339.780895562804	0
1	6308	16366.832495380558	1
1	6312	16369.814441932572	0
1	6330	16429.52594670283	1
1	6332	16437.053094076102	0
1	6336	16443.276213853435	1
1	6338	16461.988638929222	0
1	6354	16497.614170634917	1
1	6357	16497.733766902244	2
1	6361	16506.438505652967	1
1	6364	16514.457770335807	0
1	6370	16526.265765430076	1
1	6372	16545.273414898073	0
1	6388	16576.509170099392	1
1	6392	16581.647230897011	0
1	6402	16596.621301734871	1
1	6404	16602.356725574606	0
1	6418	16628.101968668604	1
1	6420	16631.222994447485	0
1	6426	16635.68218547415	1
1	6429	16644.570411546651	2
1	6435	16652.590528509964	1
1	6438	16657.200813198585	0
1	6460	16712.929490126772	1
1	6463	16718.662521216012	2
1	6465	16723.80950265277	1
1	6468	16733.854034896882	0
1	6498	16787.119393320169	1
1	6500	16788.923657379948	0
1	6528	16855.961815010287	1
1	6530	16868.874575891719	0
1	6558	16947.045696136686	1
1	6562	16951.605621936201	0
1	6580	16996.010866002502	1
1	6584	17018.26430071279	0
1	6606	17058.265817056647	1
1	6609	17066.541052416607	2
1	6611	17070.449758671187	1
1	6616	17081.72482052903	0
1	6628	17111.32959548858	1
1	6630	17115.828961414923	0
1	6636	17131.104617201753	1
1	6642	17137.909511420984	0
1	6646	17150.427866707546	1
1	6648	17151.550041683304	0
1	6666	17199.324511236088	1
1	6672	17210.383842093917	0
1	6676	17211.071879461741	1
1	6678	17226.950885913753	0
1	6690	17247.986565598833	1
1	6692	17248.431699564107	0
1	6716	17318.470307803176	1
1	6718	17329.537592233683	0
1	6722	17338.971080964249	1
1	6725	17340.717686122157	2
1	6727	17348.821203443462	1
1	6730	17349.255962054974	0
1	6760	17399.624593153771	1
1	6762	17407.085343261244	0
1	6768	17414.821853704432	1
1	6772	17419.536206159446	0
1	6796	17471.46681287051	1
1	6798	17484.267083676019	0
1	6824	17551.872574396269	1
1	6827	17569.545744009311	2
1	6829	17571.730941857679	1
1	6832	17577.596492450957	0
1	6836	17583.086962701933	1
1	6840	17607.514421572911	0
1	6856	17625.499190249341	1
1	6858	17632.882668648184	0
1	6886	17693.835182343532	1
1	6888	17694.018177304145	0
1	6926	17795.398453597999	1
1	6930	17804.272931092751	0
1	6940	17842.56419306091	1
1	6942	17843.592962746282	0
1	6946	17856.297934639994	1
1	6950	17874.099237474575	0
1	6954	17877.196513826444	1
1	6958	17893.495997544106	0
1	6976	17929.598430927218	1
1	6978	17933.038402742547	0
1	6986	17946.874354725468	1
1	6990	17956.385018950561	0
1	7032	18078.454680798935	1
1	7034	18094.285502877991	2
1	7035	18098.551717830036	1
1	7038	18120.957667762143	0
2	20	97.47993272911	97.47993272911
2	28	126.379835093089	73.27026076028
2	36	136.659821271953	120.74233118064
2	38	139.709035501511	70.855438369064
2	52	206.133289180753	117.73956352044
2	57	237.011992349417	104.14777824838
2	71	282.308210759443	136.36634531398
2	76	290.146791364942	52.939196284649
2	81	307.553665841998	100.46175593445
2	89	338.450001015051	140.54305385261
2	115	393.323171963506	115.29773256498
2	120	414.35794663775	90.585094590073
2	122	417.690228633398	109.33406975507
2	136	454.546659059257	103.18336713584
2	138	456.873230908801	118.34383302601
2	159	502.617185951953	118.58323696766
2	162	509.061484142694	127.93309570424
2	172	540.39097736959	148.14224078774
2	184	561.477760492665	177.06444012435
2	187	568.784109203454	123.41124218685
2	193	588.387213225037	164.99259555945
2	196	596.581711189578	185.14201506036
2	206	619.353383643709	152.80383399735
2	209	626.333054098749	137.57155553865
2	217	653.094083922119	152.00243601763
2	220	667.835009885674	178.28984819731
2	228	709.536385674773	188.32731766695
2	244	741.539909489739	216.8125705734
2	250	757.357075210402	125.4277292892
2	256	779.949848520339	111.62412421345
2	262	800.237852956741	89.805702634009
2	281	833.77075251947	93.111464481371
2	286	856.674943574668	127.67322331391
2	292	863.090716092501	119.87029274818
2	302	897.205456941643	69.871639889505
2	308	899.077147416626	132.51925354133
2	316	915.47614947125	86.169326250747
2	320	915.815276103767	138.55969471333
2	326	937.275759134527	106.23352626723
2	345	986.788741366456	148.07530421719
2	356	1023.007157816791	129.6845868083
2	359	1025.020090154684	149.36009998538
2	364	1037.414782310232	127.99626330571
2	367	1050.482178917637	134.76922669603
2	372	1067.441198959448	121.67765421894
2	377	1078.363242993385	138.32011770304
2	385	1107.448388815971	133.46435588958
2	387	1109.824099178513	118.85565002083
2	401	1148.183056439512	80.354475616957
2	426	1216.116726729324	105.5915369071
2	437	1225.059642920187	99.29709767205
2	440	1247.022745440497	100.60425997945
2	442	1256.967971439074	97.667391811577
2	460	1291.643405308886	118.37098671235
2	463	1300.147610428658	133.66848648377
2	471	1325.649692815561	145.52528172506
2	476	1328.07109920047	138.27397437818
2	484	1360.348539965166	141.02479373233
2	490	1375.072265911598	173.62310124487
2	495	1391.580963433372	102.80650761489
2	497	1394.652553015458	201.94394862421
2	516	1447.836171496443	122.05207341675
2	518	1450.368120893341	137.25327516811
2	529	1492.923678850761	126.62140442901
2	532	1494.766437587041	98.267694053099
2	546	1531.794658121669	118.45829535309
2	552	1557.179090645674	143.16699216605
2	571	1596.646150644352	74.017640421926
2	576	1614.828079330681	199.3824731648
2	589	1639.89290051037	143.4503575684
2	592	1642.766700945508	111.8459398699
2	594	1653.012230587893	113.87830632621
2	606	1680.566781026871	145.18323578925
2	621	1702.8366867319	132.1345080281
2	624	1712.840757020807	129.03949534453
2	626	1732.423215119928	149.26908953656
2	645	1767.704491272451	170.03923420543
2	648	1769.548538944133	154.6648091435
2	658	1799.070381036881	160.1672331054
2	662	1807.097157027421	152.8524160045
2	670	1822.25068689604	136.09176362795
2	687	1863.674987759455	172.57887911539
2	690	1872.33102067506	190.29273837663
2	692	1887.685416191939	138.80779570989
2	704	1901.410023750693	150.74931746874
2	712	1923.692378843504	165.55827667366
2	720	1943.307706503647	165.94481290238
2	726	1960.612609969055	181.85736294632
2	732	1985.220089936852	179.226208428
2	740	2002.059036194909	180.68275866413
2	746	2026.259628139554	178.48839007577
2	748	2039.915248540506	199.85776435762
2	764	2068.43817832961	153.87997917929
2	767	2078.469432234579	152.8278165033
2	775	2096.163657343112	201.43554405074
2	780	2119.99300727572	133.28769815257
2	796	2157.200256577859	107.3530366264
2	802	2160.766481286607	98.46267513985
2	807	2188.29687656411	90.19870625823
2	812	2201.968486439316	106.70315682934
2	837	2239.898412144435	100.75269012201
2	840	2242.711394448894	120.23323723939
2	853	2277.318973811523	135.50643932365
2	856	2280.408051331855	77.278836022833
2	864	2297.230019342251	99.004765886075
2	868	2303.239608176575	84.042557614211
2	888	2378.110287093487	152.15014223423
2	891	2379.707901525266	151.63401318392
2	899	2412.771661544182	183.3955159071
2	904	2416.36944556145	186.66197803594
2	913	2427.252419626888	181.32213165682
2	923	2468.978446378506	177.92665451674
2	928	2476.581124581655	177.27473538536
2	930	2494.094649877139	217.40778761754
2	948	2514.907126325298	145.49400114105
2	953	2548.460445802537	154.38971135767
2	956	2551.062916261915	137.75194328525
2	972	2580.010084071179	275.77537843062
2	980	2599.302673699972	92.038884114843
2	983	2618.386236041964	156.22445861772
2	986	2627.819937451783	174.85398638305
2	991	2642.616157056763	169.88503506648
2	1002	2662.602780864665	138.49626522279
2	1006	2672.317566717943	100.80329946379
2	1022	2718.793659202286	140.09351384561
2	1024	2726.129484507946	142.14392986855
2	1039	2748.81310907039	103.73035885085
2	1042	2749.859375827782	80.491804797788
2	1052	2774.722055085171	127.98205940727
2	1054	2788.743439060805	108.46271373547
2	1068	2818.615864239276	102.83665454988
2	1071	2829.520155548784	139.70985857149
2	1084	2851.987484330098	118.2816905403
2	1095	2878.613683746713	121.91306220192
2	1100	2892.613550842294	93.474609582006
2	1108	2904.684982115975	136.62095089633
2	1114	2918.795040743392	72.711601734206
2	1119	2922.62592154548	85.904611600991
2	1126	2953.095965165478	100.4461410119
2	1140	2974.179372515467	127.90122531947
2	1148	2998.289588227806	115.43053204975
2	1154	3025.045286029285	127.55532306857
2	1156	3030.599189173014	90.247232203706
2	1169	3065.59235649008	113.98389548443
2	1177	3079.870784045493	124.77841983236
2	1180	3103.993440757975	126.90081154499
2	1182	3106.346436597102	144.75065497419
2	1202	3178.571623547983	138.82240454407
2	1204	3180.253647889428	108.2777889031
2	1209	3211.088310833058	92.23505903076
2	1222	3233.299955065454	76.67563163285
2	1228	3258.264429485204	122.05177804255
2	1233	3271.837327871459	115.40929316682
2	1241	3339.890073545907	102.98027929861
2	1243	3344.043693639233	123.45427067123
2	1254	3379.158605949097	107.86742546603
2	1278	3480.726078137616	101.60052876659
2	1284	3498.019328999338	129.05816870936
2	1300	3539.786222948236	148.7990416307
2	1307	3544.9756561864	108.83978870436
2	1321	3567.21819673142	138.41643232526
2	1324	3568.746039628989	123.82863243519
2	1334	3598.227755515719	141.57497218832
2	1340	3618.11657847697	120.03394040302
2	1342	3623.923360292757	163.17353162243
2	1352	3651.072038936303	112.26351711692
2	1356	3669.605488322245	125.38247868812
2	1372	3713.546987030093	169.00939492046
2	1380	3720.318802602053	161.38831253865
2	1384	3738.977963569269	177.97735483753
2	1390	3763.176189320713	202.8356602901
2	1405	3791.368590340546	225.36896527581
2	1408	3799.879289087705	216.52242662522
2	1419	3829.832150557403	243.66577375582
2	1427	3855.8904870502	176.29397182984
2	1430	3858.997550382845	192.87990404686
2	1436	3896.78920632006	204.16534837878
2	1438	3898.671292866834	211.5735387841
2	1454	3949.242610869597	233.60550106973
2	1457	3958.55325510652	220.99229408646
2	1463	3967.750900455289	142.59537294302
2	1470	3991.557119857908	201.68334018941
2	1479	4016.635908354387	179.55694301418
2	1481	4017.687175873587	95.947894606738
2	1495	4073.463955022255	107.30039009141
2	1500	4092.137684795696	90.358944410373
2	1505	4097.282769544623	104.87994299208
2	1513	4137.111350354669	107.70342837238
2	1527	4167.274456125225	106.11938954909
2	1529	4167.443213802721	69.737621870252
2	1545	4238.286075282748	136.07963347304
2	1554	4250.628549350524	107.53185556188
2	1556	4260.548837250042	117.95070537595
2	1564	4309.142777431566	97.227202691209
2	1574	4350.815907082917	119.97829751748
2	1577	4359.031437954235	115.27785183851
2	1585	4371.858465287777	130.2128017703
2	1590	4393.389392561295	104.48627063045
2	1601	4471.935963580455	105.21463984146
2	1614	4514.825696440602	132.04163726318
2	1623	4548.74868137907	95.783351181571
2	1631	4559.598279468142	86.025628499884
2	1633	4574.273377695866	107.20906107085
2	1649	4624.100885921719	114.75878402657
2	1652	4633.782630993621	132.43643454802
2	1654	4648.229137227005	99.230783726381
2	1662	4677.401256647321	84.396316737813
2	1670	4719.306926835541	99.353010452216
2	1684	4753.273853614924	88.647140209625
2	1692	4799.632383487682	92.727533789449
2	1711	4833.394197139077	87.530076313151
2	1714	4845.691268962794	99.985455066991
2	1722	4857.532850581987	111.17206560113
2	1730	4885.265200058805	84.518970044552
2	1732	4885.581889382978	88.171574531174
2	1747	4917.760977611392	67.92946424159
2	1750	4938.599371220033	129.4635547364
2	1753	4940.490250572969	107.87303135345
2	1761	4961.495725245384	85.906407093378
2	1769	5008.346186131464	114.41143204122
2	1780	5039.802215735527	88.486318922214
2	1785	5052.450120279523	109.26248080116
2	1796	5088.059478220186	71.668408189492
2	1798	5097.212514772806	95.498844082562
2	1817	5165.941236083327	116.68310134852
2	1820	5172.570271523126	103.78629632894
2	1830	5198.536680352663	87.329616021565
2	1842	5254.556589806041	102.26847579767
2	1847	5259.221684220802	104.3559972916
2	1860	5290.942527454549	100.64977413894
2	1866	5293.89652823961	101.13558549385
2	1868	5317.816988644431	121.2141343757
2	1884	5358.398202625361	95.343267837005
2	1886	5359.288437770888	157.02413478521
2	1895	5388.5017903797	108.0545483746
2	1900	5401.141644920745	109.08861115598
2	1925	5459.036835056123	118.60277340819
2	1928	5471.319292080702	129.64890745981
2	1930	5484.063791989118	129.51891125118
2	1940	5521.071947764256	113.12930269706
2	1953	5549.752429070278	149.53966764395
2	1963	5565.142491569789	130.01416504621
2	1968	5576.485248009267	159.54833558315
2	1982	5600.966503121491	157.88859499945
2	1985	5617.84907451948	167.83258873434
2	1988	5624.263383060546	172.94102536249
2	1996	5645.931327902546	142.61550529759
2	2008	5674.834297220974	166.07145008892
2	2014	5688.795404777527	133.73170017523
2	2020	5707.315056701936	154.28766493918
2	2031	5723.637654356792	125.64449077359
2	2036	5740.240560223078	163.77520582822
2	2038	5742.450588486371	88.962332471558
2	2047	5768.881942852772	51.121630657645
2	2060	5806.165086129885	128.71380235818
2	2074	5822.161218795194	115.72349763398
2	2086	5851.630977363423	129.91602980947
2	2095	5865.763250540242	86.428179591526
2	2101	5885.450990022378	161.24018062322
2	2104	5890.841280358759	101.29630615599
2	2120	5941.164179713871	123.7663974176
2	2123	5942.826119508947	148.52782788405
2	2136	5980.585346224123	160.96176658972
2	2139	5983.451671971257	161.93675760684
2	2147	6005.945306867828	170.65617562429
2	2158	6020.583140352461	203.00593030951
2	2164	6042.10268644485	204.78257978969
2	2167	6045.567958417855	120.63935829054
2	2174	6073.584857689606	142.32770973854
2	2176	6073.747642481452	232.72441475658
2	2191	6091.899562764069	139.92927367803
2	2199	6118.165954666083	127.33165445351
2	2202	6124.272046906821	180.75555358212
2	2214	6163.753197829435	153.85317899241
2	2217	6168.834815549462	109.86867988237
2	2223	6176.758978221442	110.04889320953
2	2225	6187.029082932915	95.288818781989
2	2233	6220.917239380472	104.88186105819
2	2235	6237.520922563508	77.46920675391
2	2240	6270.831542694439	95.469045239356
2	2276	6360.698932457324	88.584686021016
2	2287	6377.345413933235	95.88810296772
2	2290	6394.410728642164	105.6080543267
2	2292	6403.43378060264	112.84768464181
2	2318	6469.463229532219	172.54379973364
2	2321	6470.396820320187	179.63616643322
2	2326	6501.700793033281	201.6649795125
2	2335	6505.985994667829	204.58140363938
2	2347	6525.431449136063	203.21119676439
2	2350	6526.943728119731	211.11808900289
2	2360	6553.377803419752	236.19504674195
2	2372	6578.061544948003	217.04405738451
2	2382	6593.392521777941	186.86063455298
2	2393	6614.753066389315	198.16248423273
2	2396	6615.624962329346	200.49463104961
2	2404	6639.142187058962	192.13408674971
2	2410	6648.342383732232	179.30636185683
2	2418	6668.95403857759	176.4436621447
2	2426	6698.943766436059	183.05200582887
2	2432	6715.436255733284	196.7154530263
2	2436	6725.509260588256	215.66406274204
2	2448	6736.505706478364	194.887174782
2	2458	6763.903415083189	212.21636107774
2	2464	6782.433601981639	221.95576439856
2	2470	6794.783713710103	239.61327528252
2	2474	6823.371956981048	261.93537540633
2	2486	6855.348967562511	276.3020172216
2	2497	6880.92221110689	274.75052767327
2	2503	6905.417505725414	285.075100783
2	2508	6912.603761272954	329.62239715946
2	2524	6948.737107786243	250.21611404311
2	2527	6950.523908655627	293.97928348398
2	2534	6977.137848971727	261.49353208051
2	2548	6992.897609596342	265.49241647158
2	2564	7015.80610580988	160.55218231663
2	2570	7033.334894224486	229.29684902659
2	2575	7043.098764802266	284.20246243698
2	2581	7048.04959018669	298.60915871562
2	2590	7066.508893976628	195.92046284082
2	2596	7079.872825791585	139.52206297113
2	2599	7093.857319205176	186.25717513765
2	2608	7115.415993587559	177.34244391323
2	2614	7124.820776060404	173.15755481951
2	2631	7151.520050959183	157.81988651796
2	2639	7167.051345859024	183.29611081465
2	2642	7177.56045841635	223.3967261986
2	2651	7205.596862462525	211.39540627024
2	2659	7221.878313573768	226.86056737447
2	2667	7238.463307907692	222.87898643837
2	2670	7247.643878973275	252.476205885
2	2678	7271.419276100253	232.2068466591
2	2684	7287.907625418048	179.1945818745
2	2688	7291.441685037334	190.50131281841
2	2700	7316.018296684979	184.36175460416
2	2708	7352.826056730735	240.06987446215
2	2712	7364.623568959942	232.95610447994
2	2727	7400.309488903922	264.96254555131
2	2733	7417.625795084124	265.05762118371
2	2736	7428.424369942481	221.97504234242
2	2740	7429.661982312177	283.23335606261
2	2754	7453.876803945066	225.65515288394
2	2756	7455.490826967367	165.71083349684
2	2764	7478.393200962627	216.75181839763
2	2777	7518.889465789484	225.3116371697
2	2780	7527.190465755928	198.7763567069
2	2788	7552.607533977363	197.76162280473
2	2800	7580.774179051195	201.6510566173
2	2810	7605.049564213627	175.53463860061
2	2819	7623.034221369496	179.2470726914
2	2822	7626.027174778397	151.92419720146
2	2826	7655.138055849566	204.70186873979
2	2844	7699.240982600584	134.4127254398
2	2847	7702.56079530082	162.41413867482
2	2854	7720.832593794753	148.39251864772
2	2856	7721.888077374206	144.8830697632
2	2871	7761.491240339919	175.64322929035
2	2876	7767.222480024926	124.99529396521
2	2882	7785.555548345411	192.62356501412
2	2886	7788.214705870002	122.91224454295
2	2900	7821.579642847281	116.08700918622
2	2906	7846.810430904604	137.53822690918
2	2916	7873.086905249064	144.40138629673
2	2927	7895.19338760516	112.54620779382
2	2930	7899.344709101097	111.94621843114
2	2938	7926.579040444144	122.04208774448
2	2946	7938.521694003946	131.42534240696
2	2952	7949.958529440198	86.421472064993
2	2968	7980.963266570292	103.66871376543
2	2974	8010.027813477227	147.66193306848
2	2980	8037.818595015862	120.6997294011
2	2988	8039.189115685425	105.00243634626
2	2999	8067.889515619721	120.43240258187
2	3004	8087.660596252675	138.00542771105
2	3012	8101.487296723364	135.6544544094
2	3018	8113.52328439111	142.0953060293
2	3026	8131.347924929202	159.13354156882
2	3028	8133.400374437376	87.632972547012
2	3036	8163.712309811571	125.02668392314
2	3044	8196.197280040873	96.577880797177
2	3054	8225.832150252574	124.78601088057
2	3057	8236.862580023052	109.55071354413
2	3062	8249.06933601262	113.56868328031
2	3070	8300.004146980044	132.85668124195
2	3090	8353.962031456255	113.96037195778
2	3105	8382.735359006382	79.922026258463
2	3108	8386.075197491501	124.20315045011
2	3114	8404.764038006364	104.46291224532
2	3119	8422.721087645897	117.54343099726
2	3132	8459.292042057051	115.61566865521
2	3138	8462.51294816793	99.085162675947
2	3140	8476.482001143773	119.62745680518
2	3154	8504.698732500957	67.203835250484
2	3156	8531.365296100417	164.05369103282
2	3175	8566.232552308188	107.01271943497
2	3183	8584.150942013191	92.208914328042
2	3191	8599.573937158769	154.82593964747
2	3201	8615.680044550218	114.78305136991
2	3208	8630.617776401597	93.80764444451
2	3218	8641.333001646479	93.798885886621
2	3230	8670.598041078468	117.84786219404
2	3236	8698.236515786598	121.70297541204
2	3238	8699.305767316592	108.30330694072
2	3252	8721.41531141045	112.67980834244
2	3260	8735.066712776007	126.1289161955
2	3268	8755.274898692283	137.21526679724
2	3278	8791.231198850198	172.2721335964
2	3284	8798.509380091394	162.47968143065
2	3297	8820.326241287454	178.06949439562
2	3300	8834.303126506418	197.65060917669
2	3302	8864.36013467465	217.0206695256
2	3324	8908.260946909775	258.26710116379
2	3329	8917.499972718011	205.10591582566
2	3335	8929.91533782732	218.47971927685
2	3345	8946.250501674661	220.41077254903
2	3351	8952.784596528095	177.43116561499
2	3360	8967.159450607626	214.06025484819
2	3366	8982.421624040568	209.94442022329
2	3368	8995.52414879401	190.04426463565
2	3386	9043.713628657198	232.40797483095
2	3391	9058.038645332158	157.93640692828
2	3394	9067.419337906212	198.51880845329
2	3402	9087.020911994102	212.33439597778
2	3422	9121.703823074032	182.09378857882
2	3425	9132.161791980165	216.71067511555
2	3428	9151.282041344768	190.55378886326
2	3430	9164.672312839182	229.51339108355
2	3442	9193.382551979062	148.85916244026
2	3451	9214.044150373228	253.03665652662
2	3458	9226.7856069896	265.50609762324
2	3462	9230.70419935857	220.89417880986
2	3478	9280.871362371969	182.70005022406
2	3481	9291.166225532005	223.28441893921
2	3486	9307.30087382472	223.44649062319
2	3488	9333.962673329789	266.30926846787
2	3508	9382.553972931119	207.06714608629
2	3511	9389.52433018704	165.74855009425
2	3516	9404.699647062718	286.04483933478
2	3518	9418.668686876165	197.93164395554
2	3532	9473.783356000217	244.42325514176
2	3545	9491.723069257837	193.93223347608
2	3552	9502.871865543027	132.83033889705
2	3560	9515.655529275469	145.26984876657
2	3574	9540.963202956154	146.21126692398
2	3585	9570.628104583031	93.17353640377
2	3591	9584.911553684991	137.17577917576
2	3597	9606.392829476661	127.57109419846
2	3605	9618.857078723965	127.77033301533
2	3612	9621.550670711733	112.3940912677
2	3622	9649.806935948379	149.50615494524
2	3630	9680.393891670405	161.8260227022
2	3632	9685.674992104561	190.05535202725
2	3645	9715.695194478925	189.8689370011
2	3650	9725.207567754832	200.54177890025
2	3658	9748.858081352475	203.65128455672
2	3671	9767.821781335528	227.23002127931
2	3679	9776.261129864186	156.20773360883
2	3688	9801.813979066009	181.80191812752
2	3690	9814.753137568095	203.93393719048
2	3708	9863.230928031767	219.36647584112
2	3711	9865.863712178384	217.56358700108
2	3716	9887.170634309206	169.17334759788
2	3718	9897.502862273007	238.56741846012
2	3737	9943.772920460156	212.05029059841
2	3747	9960.680379453641	205.93479430891
2	3750	9965.348071259213	205.61970821108
2	3760	9989.802905484975	221.46203231492
2	3776	10020.473684284634	236.83908991689
2	3779	10025.376040844296	248.00032355062
2	3789	10057.303038525248	233.35987247633
2	3795	10062.670764856934	270.94193318337
2	3803	10087.537518583871	209.75597304842
2	3806	10088.228454894819	165.8030405073
2	3816	10121.875105536016	179.8588978278
2	3824	10130.263595299044	206.10792538224
2	3828	10145.106424015626	197.42245930395
2	3844	10173.263009536651	215.7453739215
2	3853	10179.796958063414	203.08802287796
2	3858	10201.09173937663	214.51167541829
2	3860	10204.771502178792	199.77976175851
2	3880	10256.259093533363	222.47739101732
2	3883	10268.773333632552	192.69367408605
2	3888	10273.915214791301	235.69585191398
2	3890	10300.484535007839	292.57959462418
2	3912	10354.388475058953	237.98038569891
2	3915	10357.877667916717	231.91228476895
2	3918	10380.373510735265	237.18091925734
2	3920	10385.379998561838	268.9731206377
2	3935	10421.315307733695	271.36518471752
2	3940	10424.39899836561	259.8992925622
2	3953	10445.090905668835	287.96985096054
2	3956	10454.509604582958	261.80901296479
2	3973	10486.022021814743	249.80238831108
2	3978	10492.099884701251	265.62696061481
2	3986	10505.165396371139	175.81813724576
2	3990	10518.309273716466	249.12982749152
2	4005	10546.857827075566	234.28294203161
2	4008	10556.665294164527	162.04289182181
2	4010	10563.289851280725	224.36266131387
2	4020	10581.043901027112	147.3430549987
2	4022	10590.920950602222	166.79680731404
2	4034	10626.403386296722	193.42714552564
2	4047	10687.482100705992	223.14183940802
2	4056	10702.554643535144	247.02917917495
2	4065	10717.684953884635	252.04989269266
2	4070	10741.912480163922	256.29926357374
2	4073	10746.875947711692	249.73839754003
2	4083	10771.834715090878	282.94215239863
2	4089	10780.636872369481	265.85632071082
2	4092	10789.746981099812	269.37469634066
2	4103	10807.382807961978	209.48499624246
2	4116	10841.644910502053	249.93012980713
2	4119	10845.344521401745	219.05434299861
2	4122	10862.83310799182	137.62717570489
2	4124	10868.429154515725	112.37001216759
2	4137	10904.214922897503	136.52911996058
2	4148	10934.125447687815	134.1708666286
2	4154	10941.72358515167	125.13795153659
2	4164	10982.336950707013	162.74077067281
2	4166	10993.594682875026	118.75533653883
2	4172	11007.290177949556	70.10953805173
2	4195	11068.638187913063	134.76363893319
2	4200	11070.623649915275	137.10766962293
2	4213	11102.129465770311	159.44176532467
2	4224	11123.25132251662	78.942201327288
2	4227	11123.39531127045	173.7372685939
2	4234	11157.91710888133	133.01977568833
2	4240	11162.246152145104	117.06601812964
2	4254	11200.492815234426	154.20805952758
2	4259	11202.889971568602	135.99368692878
2	4262	11220.412431768093	149.85124783334
2	4266	11227.144550189763	151.59299250154
2	4285	11271.433561285251	147.40794048609
2	4291	11282.713507705884	183.0472209187
2	4299	11305.416051766622	189.76459543664
2	4304	11315.063295111923	179.97509452577
2	4314	11330.137147754657	130.26098477716
2	4322	11347.799307383345	146.22111080441
2	4330	11362.010173714807	133.21983594711
2	4338	11379.991402529202	156.48861950493
2	4346	11406.105394755048	148.0779106553
2	4357	11428.493493173373	166.09357956127
2	4360	11430.546519963623	123.05650724161
2	4369	11469.212770835227	182.5196617448
2	4374	11482.665858584511	164.49463560964
2	4380	11485.910918988793	167.72535165601
2	4388	11525.516834249487	184.13978782659
2	4396	11543.626898834032	183.22692213854
2	4404	11559.637243389982	197.6077265672
2	4412	11572.655528244638	184.78331586587
2	4422	11601.321455436711	190.11034406267
2	4424	11603.076888668995	125.09523032388
2	4448	11645.407341057538	117.65276793397
2	4453	11671.976198535708	176.63319842437
2	4463	11696.447181494884	140.45731033505
2	4471	11703.187076294523	143.47218009686
2	4477	11714.322107534007	130.40467845348
2	4480	11726.145698126669	130.94186606437
2	4488	11738.598826209123	103.91617705565
2	4490	11742.203724140374	131.46723098702
2	4515	11796.506672554639	158.40929114712
2	4518	11805.249597822994	168.43511226566
2	4520	11818.875835500298	164.53383979761
2	4548	11880.934352240867	206.03485054292
2	4551	11900.453508438489	202.93923254374
2	4556	11919.118221362625	224.99833006563
2	4558	11930.948797813324	204.46517233408
2	4573	11956.187907569348	192.44392954937
2	4576	11957.979324432814	199.86841802656
2	4586	11980.548406872325	219.91831076058
2	4590	11984.628477786375	220.37423979207
2	4605	12027.844766478997	202.1022479569
2	4611	12040.936946554769	216.43359491205
2	4618	12052.463564920089	278.11793949838
2	4622	12067.978888721784	272.96423040532
2	4628	12093.259131724479	226.24673304803
2	4649	12134.422541405096	264.34226782622
2	4652	12145.279893181247	276.11902798357
2	4669	12163.246265429326	290.28457395783
2	4678	12184.928255557459	272.59251601798
2	4684	12191.953543561221	225.08393639263
2	4689	12211.210070261254	271.10546530214
2	4692	12230.713718927177	270.86728033047
2	4696	12241.11378508137	259.87535501349
2	4712	12268.133304264438	274.53221674553
2	4721	12287.595250507269	229.81789777474
2	4724	12292.372184575893	248.73836338164
2	4735	12324.595725733091	283.15793567097
2	4743	12335.922821278378	213.25675758431
2	4751	12348.962625238305	219.9598055435
2	4754	12359.54621864457	254.0715930471
2	4756	12369.920154916044	239.59827039654
2	4786	12422.083734412787	259.25589257055
2	4789	12436.739734762783	287.71116393737
2	4795	12453.820705221245	295.37206674685
2	4798	12464.498168721349	313.33182995819
2	4807	12491.171866956006	214.04064023379
2	4818	12512.433043952558	272.32860554332
2	4823	12532.643200800123	252.19696536269
2	4826	12535.686467422491	326.37607187575
2	4835	12560.522142648755	277.04922545975
2	4838	12572.799790675223	276.25487433035
2	4846	12596.173172611587	251.6959917167
2	4848	12599.319247218271	267.27907412322
2	4869	12653.489413117767	276.61554474248
2	4872	12654.001014049259	271.43295350804
2	4878	12669.530791865575	255.74705436037
2	4891	12690.199187101596	298.89761306932
2	4894	12716.689851932546	299.60133309805
2	4903	12736.320836202021	212.54397899753
2	4906	12736.591324096984	322.18960641732
2	4917	12764.935926870545	345.46610620747
2	4922	12783.237965260212	194.61205652688
2	4924	12787.585850124055	295.80656960154
2	4946	12840.313886329441	218.57659291264
2	4951	12856.820800877484	236.99436108369
2	4957	12881.937554466851	230.04293472317
2	4965	12895.348042847044	214.01253752195
2	4970	12901.939015809328	263.96591454967
2	4981	12926.854723171622	243.69980808913
2	4984	12946.447396781931	182.29677497653
2	4986	12950.895195528432	181.87868009383
2	5003	12982.732150930779	168.86045331729
2	5008	12992.510634576843	199.29525629096
2	5021	13019.680247041423	192.68988565804
2	5029	13027.329565392173	170.8230724901
2	5037	13045.095158566811	155.9060145405
2	5040	13059.087894597419	157.70897613726
2	5042	13063.547125758171	160.93584928341
2	5054	13100.001715692533	119.03090365943
2	5062	13113.015873183986	133.4663221478
2	5068	13123.707452549924	135.35423355257
2	5076	13157.554285430729	160.33822729658
2	5079	13164.647009254815	145.4983517339
2	5084	13186.915796533997	160.12341905246
2	5103	13216.477281748004	173.84926336831
2	5106	13216.879405709804	147.29105981643
2	5112	13257.731100409241	157.51506732337
2	5132	13297.668085999384	120.17699511986
2	5137	13325.670277480798	124.34241611662
2	5140	13332.105520681997	132.85733055465
2	5153	13358.7673024074	151.1561630568
2	5161	13369.035811470782	136.40912974223
2	5164	13378.71251845831	95.210561687983
2	5177	13415.720865046212	182.52729874237
2	5180	13419.713673430062	125.28316698648
2	5186	13440.170156209979	98.807835611902
2	5194	13451.002838803504	135.18125930858
2	5202	13476.552675738222	115.4084212658
2	5204	13481.256618652381	130.23442180925
2	5212	13508.659968334464	104.84751028544
2	5217	13539.369963951909	111.68845024446
2	5228	13574.406849625117	99.032718759757
2	5230	13576.007139651508	128.46968232327
2	5250	13631.510834082416	118.80300979147
2	5260	13664.698494147535	96.348097640744
2	5270	13702.079061500803	121.32710468956
2	5276	13715.540882746111	91.271287883784
2	5279	13732.977311323672	141.79121316651
2	5281	13745.85217111514	122.29489878735
2	5289	13774.501021506819	133.21642834012
2	5297	13791.506550599839	152.55819776368
2	5299	13816.77295123728	110.84792495921
2	5310	13883.14015015117	96.408606978668
2	5324	13937.019152841987	80.300110070006
2	5338	13981.74489633176	130.78743956356
2	5348	13996.320933853076	76.24429749245
2	5354	14020.518953102913	84.239981131699
2	5364	14046.41610554745	148.86459948902
2	5375	14067.250986264154	79.418149716067
2	5382	14082.761865699174	88.318525677127
2	5390	14097.28679426874	130.65345490776
2	5392	14117.142385962959	148.56007069372
2	5407	14143.45232558753	118.03727426966
2	5412	14166.845942347028	136.42341768195
2	5415	14178.432158367114	130.97864751423
2	5426	14191.201674601333	121.41505334153
2	5436	14225.96535484316	139.06969322641
2	5442	14255.975228149404	117.55631004807
2	5444	14261.799630291231	183.18685970814
2	5455	14289.345136689447	104.94405454968
2	5457	14291.304999853077	101.21377308272
2	5474	14325.564227705436	124.57040294187
2	5484	14360.058149834251	142.55061510012
2	5494	14386.440757876671	122.74601583872
2	5503	14408.217676317634	101.59817354818
2	5511	14438.156506313235	138.89675148732
2	5516	14445.810443628786	131.55478520697
2	5526	14468.64011990166	154.31012805301
2	5532	14481.60345112794	156.91908773355
2	5558	14518.259051371831	137.52769427925
2	5561	14524.422445403747	162.44145922712
2	5564	14539.989083240919	126.24738766485
2	5573	14573.368973815167	113.94124898434
2	5579	14585.978162993321	122.75876051551
2	5591	14614.699216945426	145.45432571125
2	5594	14618.523276393351	151.60194050169
2	5600	14642.772186536316	163.41437478151
2	5618	14674.779595807669	187.65854193962
2	5621	14683.067480296028	183.87304767238
2	5626	14687.167155780135	174.36500269516
2	5628	14707.595118448481	191.47454146484
2	5645	14736.67882073792	218.88085890705
2	5651	14745.161002070424	142.2191899812
2	5654	14756.490643111064	163.76030460054
2	5656	14762.732399652126	163.69476402246
2	5676	14814.890731809344	192.79713179598
2	5683	14831.014775514667	194.55721520405
2	5689	14856.218017320859	195.45256597409
2	5695	14863.676356739376	178.99144776367
2	5708	14896.69835155411	125.53099007637
2	5718	14908.177969550316	179.86241550719
2	5721	14930.513626504969	196.22615890967
2	5724	14931.690928242023	139.17208091798
2	5737	14978.386993614111	157.37157875894
2	5745	14991.825699083303	161.14019220323
2	5758	15017.568865491943	124.81696386873
2	5761	15019.694805010148	151.79090232073
2	5771	15041.315383846764	139.36720244789
2	5774	15049.932353050864	145.9230824228
2	5785	15069.304403066672	128.64141597947
2	5792	15084.929736166497	101.99315524023
2	5804	15111.844956009696	106.55975735581
2	5807	15121.262812251111	121.85560383886
2	5810	15133.052331197707	120.81518373645
2	5825	15165.267688167291	126.22008837148
2	5828	15168.70915037416	97.236983302665
2	5839	15210.67304576784	179.51164235778
2	5842	15214.251411739313	159.1647167036
2	5849	15228.796141474119	88.432156230835
2	5852	15243.712507713698	166.88369595956
2	5854	15248.131052239159	103.0870332401
2	5868	15299.134603531779	150.79198255155
2	5873	15301.008090648946	114.37209433999
2	5887	15365.445280961724	110.55594847081
2	5897	15391.136054040213	130.0807837327
2	5900	15400.759589983017	100.11992552244
2	5902	15409.178223241143	107.26913926192
2	5916	15460.884711081753	111.01731501768
2	5932	15503.459694281909	115.8293067399
2	5935	15513.918396659274	83.944317699173
2	5943	15521.523920860028	86.767370677394
2	5954	15544.001903430223	132.70618675579
2	5970	15578.74154026129	87.935066649564
2	5974	15593.855953602436	114.81172715708
2	5982	15601.692178832561	78.340551575495
2	6000	15639.640013976491	119.14613158221
2	6002	15655.313859228838	129.47041634811
2	6019	15689.883046258437	150.93253815246
2	6035	15708.846436211382	150.92442258628
2	6042	15721.703308403823	181.03300558748
2	6048	15736.494684766757	183.7000373036
2	6052	15764.401637738192	194.37084331674
2	6065	15790.801879325403	194.02517726796
2	6070	15801.718281631031	219.57624973544
2	6076	15821.782116633478	212.54438120709
2	6082	15832.440005866794	214.61467430951
2	6097	15869.601322874436	183.72229472757
2	6100	15880.684196987714	248.58681172736
2	6102	15886.898710712531	257.95408759775
2	6114	15917.112440188865	229.01848530198
2	6122	15937.069730537882	246.55021254787
2	6126	15947.573009777	254.54176669197
2	6149	15981.751607902215	288.05464949805
2	6155	15989.869034878967	277.0879970693
2	6158	16002.061215877603	305.3266311781
2	6166	16018.78660016002	311.87388212596
2	6168	16028.967688434521	308.76965168035
2	6183	16060.729502452465	306.59604035411
2	6192	16083.69946168105	285.85223791694
2	6194	16083.823078993325	260.59645952339
2	6209	16128.964918977111	284.31796834985
2	6215	16140.337095940558	310.05325734852
2	6226	16168.144375594229	252.35440839365
2	6228	16174.689762958197	252.18544745563
2	6241	16200.65054530661	243.27055394023
2	6244	16205.018192900558	264.92213066021
2	6256	16236.920410333402	276.64378745286
2	6260	16255.686821774312	292.63041365449
2	6272	16279.592974604817	273.16303558045
2	6281	16299.282795050839	322.53206319214
2	6286	16306.017795007664	333.38615984743
2	6299	16339.780895562804	296.33081429906
2	6302	16341.672384815948	278.04793740384
2	6313	16369.814441932572	305.88820377434
2	6318	16390.069399465728	294.53613724874
2	6324	16405.622414756357	322.31639347652
2	6333	16437.053094076102	275.08619164909
2	6339	16461.988638929222	294.71842401145
2	6346	16472.683014396908	310.59165717499
2	6362	16506.438505652967	338.98173443254
2	6365	16514.457770335807	308.70428133834
2	6373	16545.273414898073	336.81801588837
2	6378	16545.703729146173	292.28306991964
2	6393	16581.647230897011	370.10884374613
2	6396	16585.274444731219	316.20185772635
2	6405	16602.356725574606	271.5610305167
2	6412	16617.659287880259	318.22351256459
2	6421	16631.222994447485	293.15146144953
2	6436	16652.590528509964	189.50198594207
2	6439	16657.200813198585	288.86960641418
2	6446	16680.374894012558	295.90544796151
2	6452	16694.940179316803	223.47374917615
2	6466	16723.80950265277	222.364100071
2	6469	16733.854034896882	210.14010359706
2	6476	16754.767842585592	209.45779043595
2	6478	16758.796403077611	266.76991590443
2	6501	16788.923657379948	211.59659916298
2	6504	16798.499200547877	249.96325720377
2	6506	16801.724556305012	191.02239241757
2	6514	16834.738930285734	260.6579099756
2	6531	16868.874575891719	235.98362914071
2	6534	16869.171018354388	218.72912695743
2	6540	16899.379835456847	283.70998355636
2	6548	16920.557885921417	269.31599497761
2	6563	16951.605621936201	287.01631856202
2	6566	16953.607255952045	254.08803194506
2	6570	16983.058553094056	306.07676301815
2	6585	17018.26430071279	263.77373111813
2	6590	17030.843115550628	270.11335970931
2	6598	17044.081554006287	297.68359890765
2	6612	17070.449758671187	286.55601710592
2	6617	17081.72482052903	318.98856435531
2	6622	17094.661796396373	310.73613801949
2	6631	17115.828961414923	351.81496161572
2	6643	17137.909511420984	333.34735119
2	6649	17151.550041683304	314.27968745946
2	6654	17173.145381854707	333.89434740876
2	6656	17185.24664086394	268.8666909023
2	6673	17210.383842093917	286.95490518207
2	6679	17226.950885913753	305.25849913267
2	6682	17232.764180144407	283.75248734607
2	6693	17248.431699564107	293.590116933
2	6696	17267.419292326874	249.22419678038
2	6702	17278.668152280455	250.46776658544
2	6708	17304.701909073522	255.46056097282
2	6719	17329.537592233683	297.0903507972
2	6728	17348.821203443462	259.6557178461
2	6731	17349.255962054974	270.59834736835
2	6736	17357.016815199661	239.1166710942
2	6738	17363.21573418977	227.20931481838
2	6763	17407.085343261244	271.02368756174
2	6773	17419.536206159446	219.27563003597
2	6780	17445.50214865996	238.24170291798
2	6782	17448.313318841978	288.66250610223
2	6799	17484.267083676019	236.85653823006
2	6802	17484.526221295609	130.47013508571
2	6808	17507.718410975232	201.06317082616
2	6818	17539.658518054073	174.89876663705
2	6830	17571.730941857679	203.88533837273
2	6833	17577.596492450957	200.96900897242
2	6841	17607.514421572911	222.13064865723
2	6846	17609.736578793018	218.93788953398
2	6859	17632.882668648184	235.62918866669
2	6864	17643.177563368579	230.57171216733
2	6872	17665.245799225776	249.67386154659
2	6878	17676.707954266765	253.24777020535
2	6889	17694.018177304145	249.72514720257
2	6892	17712.006115102496	248.46486607385
2	6898	17737.254765243946	282.9851463266
2	6902	17750.513681998891	239.1936426638
2	6920	17780.352112559925	244.18646330933
2	6931	17804.272931092751	217.10793117359
2	6934	17811.215097631856	202.32544472598
2	6943	17843.592962746282	233.76461464195
2	6951	17874.099237474575	250.81100203076
2	6959	17893.495997544106	249.94428405954
2	6964	17897.111893558738	215.91695323702
2	6966	17900.490606955757	264.73387863047
2	6979	17933.038402742547	184.37640662911
2	6991	17956.385018950561	197.35174294056
2	6994	17958.550217525777	203.37540917404
2	7000	17974.108784120634	207.40917589136
2	7008	17988.077398659421	186.29745355763
2	7015	18018.229451201938	153.80035388107
2	7021	18036.198177179651	265.53958479002
2	7027	18070.488073448418	187.11465205346
2	7036	18098.551717830036	203.02423367507
2	7039	18120.957667762143	186.17401343744
2	7042	18129.121904979341	191.85631263214
2	7044	18143.917534370965	191.17013238939
2	7049	18167.904825175049	183.9883909354

